THERMO ALL
   300.000  1000.000  5000.000
H2                000000H   2               G    300.00   5000.00 1000.00      1
 2.99142300E+00 7.00064400E-04-5.63382900E-08-9.23157800E-12 1.58275200E-15    2
-8.35034000E+02-1.35511000E+00 3.29812400E+00 8.24944200E-04-8.14301500E-07    3
-9.47543400E-11 4.13487200E-13-1.01252100E+03-3.29409400E+00                   4
H                 000000H   1               G    300.00   5000.00 1000.00      1
 2.50000000E+00 0.00000000E+00 0.00000000E+00 0.00000000E+00 0.00000000E+00    2
 2.54716300E+04-4.60117600E-01 2.50000000E+00 0.00000000E+00 0.00000000E+00    3
 0.00000000E+00 0.00000000E+00 2.54716300E+04-4.60117600E-01                   4
CH4               000000H   4C   1          G    300.00   5000.00 1000.00      1
 1.68347900E+00 1.02372400E-02-3.87512900E-06 6.78558500E-10-4.50342300E-14    2
-1.00807900E+04 9.62339500E+00 7.78741500E-01 1.74766800E-02-2.78340900E-05    3
 3.04970800E-08-1.22393100E-11-9.82522900E+03 1.37221900E+01                   4
CH3               000000H   3C   1          G    300.00   5000.00 1000.00      1
 2.84405200E+00 6.13797400E-03-2.23034500E-06 3.78516100E-10-2.45215900E-14    2
 1.64378100E+04 5.45269700E+00 2.43044300E+00 1.11241000E-02-1.68022000E-05    3
 1.62182900E-08-5.86495300E-12 1.64237800E+04 6.78979400E+00                   4
CH2               000000H   2C   1          G    300.00   5000.00 1350.00      1
 3.44310466E+00 2.32638011E-03-5.33147998E-07 5.74043968E-11-2.42694849E-15    2
 4.59375743E+04 3.23484714E+00 3.49623989E+00 2.20258645E-03-4.23828799E-07    3
 1.36484706E-11 4.31937372E-15 4.59192771E+04 2.94964354E+00                   4
CH                000000H   1C   1          G    300.00   5000.00 1000.00      1
 2.19622300E+00 2.34038100E-03-7.05820100E-07 9.00758200E-11-3.85504000E-15    2
 7.08672300E+04 9.17837300E+00 3.20020200E+00 2.07287600E-03-5.13443100E-06    3
 5.73389000E-09-1.95553300E-12 7.04525900E+04 3.33158800E+00                   4
CH2O              000000H   2C   1O   1     G    300.00   5000.00 1000.00      1
 2.99560600E+00 6.68132100E-03-2.62895500E-06 4.73715300E-10-3.21251700E-14    2
-1.53203700E+04 6.91257200E+00 1.65273100E+00 1.26314400E-02-1.88816800E-05    3
 2.05003100E-08-8.41323700E-12-1.48654000E+04 1.37848200E+01                   4
HCO               000000H   1C   1O   1     G    300.00   5000.00 1000.00      1
 3.55727100E+00 3.34557300E-03-1.33500600E-06 2.47057300E-10-1.71385100E-14    2
 3.91632400E+03 5.55229900E+00 2.89833000E+00 6.19914700E-03-9.62308400E-06    3
 1.08982500E-08-4.57488500E-12 4.15992200E+03 8.98361400E+00                   4
CO2               000000C   1O   2          G    300.00   5000.00 1000.00      1
 4.45362300E+00 3.14016900E-03-1.27841100E-06 2.39399700E-10-1.66903300E-14    2
-4.89669600E+04-9.55395900E-01 2.27572500E+00 9.92207200E-03-1.04091100E-05    3
 6.86668700E-09-2.11728000E-12-4.83731400E+04 1.01884900E+01                   4
CO                000000C   1O   1          G    300.00   5000.00 1000.00      1
 3.02507800E+00 1.44268900E-03-5.63082800E-07 1.01858100E-10-6.91095200E-15    2
-1.42683500E+04 6.10821800E+00 3.26245200E+00 1.51194100E-03-3.88175500E-06    3
 5.58194400E-09-2.47495100E-12-1.43105400E+04 4.84889700E+00                   4
O2                000000O   2               G    300.00   5000.00 1000.00      1
 3.69757800E+00 6.13519700E-04-1.25884200E-07 1.77528100E-11-1.13643500E-15    2
-1.23393000E+03 3.18916600E+00 3.21293600E+00 1.12748600E-03-5.75615000E-07    3
 1.31387700E-09-8.76855400E-13-1.00524900E+03 6.03473800E+00                   4
O                 000000O   1               G    300.00   5000.00 1000.00      1
 2.54206000E+00-2.75506200E-05-3.10280300E-09 4.55106700E-12-4.36805200E-16    2
 2.92308000E+04 4.92030800E+00 2.94642900E+00-1.63816600E-03 2.42103200E-06    3
-1.60284300E-09 3.89069600E-13 2.91476400E+04 2.96399500E+00                   4
OH                000000H   1O   1          G    300.00   5000.00 1000.00      1
 2.88273000E+00 1.01397400E-03-2.27687700E-07 2.17468400E-11-5.12630500E-16    2
 3.88688800E+03 5.59571200E+00 3.63726600E+00 1.85091000E-04-1.67616500E-06    3
 2.38720300E-09-8.43144200E-13 3.60678200E+03 1.35886000E+00                   4
HO2               000000H   1O   2          G    300.00   5000.00 1451.00      1
 4.58311499E+00 1.72730339E-03-6.19183136E-07 9.91939193E-11-5.88221567E-15    2
 3.13365859E+01 3.46199386E-01 3.47629499E+00 2.20467745E-03 1.56841876E-06    3
-2.12755802E-09 5.83140718E-13 6.17073446E+02 7.02308516E+00                   4
H2O2              000000H   2O   2          G    300.00   5000.00 1000.00      1
 4.57316700E+00 4.33613600E-03-1.47468900E-06 2.34890400E-10-1.43165400E-14    2
-1.80069600E+04 5.01137000E-01 3.38875400E+00 6.56922600E-03-1.48501300E-07    3
-4.62580600E-09 2.47151500E-12-1.76631500E+04 6.78536300E+00                   4
H2O               000000H   2O   1          G    300.00   5000.00 1000.00      1
 2.67214600E+00 3.05629300E-03-8.73026000E-07 1.20099600E-10-6.39161800E-15    2
-2.98992100E+04 6.86281700E+00 3.38684200E+00 3.47498200E-03-6.35469600E-06    3
 6.96858100E-09-2.50658800E-12-3.02081100E+04 2.59023300E+00                   4
C2H               000000H   1C   2          G    300.00   4000.00 1000.00      1
 3.98636700E+00 3.14312300E-03-1.26724300E-06 2.92436300E-10-2.71632000E-14    2
 6.65588400E+04 1.19106300E+00 2.73770400E+00 8.04844600E-03-9.24431000E-06    3
 6.52525900E-09-1.93958000E-12 6.68381300E+04 7.30022000E+00                   4
HCCO              000000H   1C   2O   1     G    300.00   4000.00 1000.00      1
 6.75807300E+00 2.00040000E-03-2.02760700E-07-1.04113200E-10 1.96516500E-14    2
 1.90151300E+04-9.07126200E+00 5.04796500E+00 4.45347800E-03 2.26828300E-07    3
-1.48209500E-09 2.25074200E-13 1.96589200E+04 4.81843900E-01                   4
C2H2              000000H   2C   2          G    300.00   5000.00 1000.00      1
 4.43677000E+00 5.37603900E-03-1.91281700E-06 3.28637900E-10-2.15671000E-14    2
 2.56676600E+04-2.80033800E+00 2.01356200E+00 1.51904500E-02-1.61631900E-05    3
 9.07899200E-09-1.91274600E-12 2.61244400E+04 8.80537800E+00                   4
C2H3              000000H   3C   2          G    300.00   5000.00 1671.00      1
 3.96047713E+00 7.99426013E-03-2.85608087E-06 4.58350813E-10-2.72570140E-14    2
 3.35153544E+04 2.25663414E+00 2.73925942E+00 7.03011591E-03 2.36647299E-06    3
-3.59569737E-09 8.91756491E-13 3.42868979E+04 1.01531535E+01                   4
C2H4              000000H   4C   2          G    300.00   5000.00 1000.00      1
 3.52841900E+00 1.14851800E-02-4.41838500E-06 7.84460100E-10-5.26684800E-14    2
 4.42828900E+03 2.23038900E+00-8.61488000E-01 2.79616300E-02-3.38867700E-05    3
 2.78515200E-08-9.73787900E-12 5.57304600E+03 2.42114900E+01                   4
C2H5              000000H   5C   2          G    300.00   5000.00 1375.00      1
 5.60116091E+00 1.06977081E-02-3.63504780E-06 5.61816654E-10-3.24914714E-14    2
 1.14539845E+04-7.02252408E+00 1.47374852E+00 1.63606611E-02-4.32896826E-06    3
-1.17270665E-09 5.72325883E-13 1.33326992E+04 1.66349852E+01                   4
C2H6              000000H   6C   2          G    300.00   4000.00 1000.00      1
 4.82593800E+00 1.38404300E-02-4.55725900E-06 6.72496700E-10-3.59816100E-14    2
-1.27177900E+04-5.23950700E+00 1.46253900E+00 1.54946700E-02 5.78050700E-06    3
-1.25783200E-08 4.58626700E-12-1.12391800E+04 1.44322900E+01                   4
CH2OH             000000H   3C   1O   1     G    300.00   5000.00 1410.00      1
 6.00127803E+00 4.98721568E-03-1.60953515E-06 2.40227135E-10-1.35582700E-14    2
-3.50157098E+03-6.92836844E+00 2.60067849E+00 1.28447854E-02-8.33796185E-06    3
 2.75727606E-09-3.57041106E-13-2.33478724E+03 1.13272307E+01                   4
CH3O              000000H   3C   1O   1     G    300.00   3000.00 1000.00      1
 3.77080000E+00 7.87149700E-03-2.65638400E-06 3.94443100E-10-2.11261600E-14    2
 1.27832500E+02 2.92957500E+00 2.10620400E+00 7.21659500E-03 5.33847200E-06    3
-7.37763600E-09 2.07561100E-12 9.78601100E+02 1.31521800E+01                   4
HCCOH             000000H   2C   2O   1     G    300.00   4000.00 1000.00      1
 7.32832400E+00 3.33641600E-03-3.02470500E-07-1.78110600E-10 3.24516800E-14    2
 7.59825800E+03-1.40121400E+01 3.89946500E+00 9.70107500E-03-3.11930900E-07    3
-5.53773200E-09 2.46573200E-12 8.70119000E+03 4.49187500E+00                   4
H2CCCH            000000H   3C   3          G    300.00   4000.00 1000.00      1
 8.83104700E+00 4.35719500E-03-4.10906700E-07-2.36872300E-10 4.37652000E-14    2
 3.84742000E+04-2.17791900E+01 4.75420000E+00 1.10802800E-02 2.79332300E-07    3
-5.47921200E-09 1.94962900E-12 3.98888300E+04 5.85454900E-01                   4
C3H2              000000H   2C   3          G    150.00   4000.00 1000.00      1
 7.67098100E+00 2.74874900E-03-4.37094300E-07-6.45559900E-11 1.66388700E-14    2
 6.25972200E+04-1.23689000E+01 3.16671400E+00 2.48257200E-02-4.59163700E-05    3
 4.26801900E-08-1.48215200E-11 6.35042100E+04 8.86944600E+00                   4
CH2(S)            000000H   2C   1          G    300.00   5000.00 1359.00      1
 3.09627180E+00 2.80839185E-03-7.13614526E-07 8.42136298E-11-3.84640828E-15    2
 5.05739697E+04 4.31392269E+00 3.32340701E+00 2.28062579E-03-2.48156016E-07    3
-1.02065386E-10 2.48826619E-14 5.04954469E+04 3.09401497E+00                   4
CH2CO             000000H   2C   2O   1     G    300.00   5000.00 1000.00      1
 6.03881700E+00 5.80484000E-03-1.92095400E-06 2.79448500E-10-1.45886800E-14    2
-8.58340200E+03-7.65758100E+00 2.97497100E+00 1.21187100E-02-2.34504600E-06    3
-6.46668500E-09 3.90564900E-12-7.63263700E+03 8.67355300E+00                   4
C2O               000000C   2O   1          G    300.00   5000.00 1000.00      1
 4.84980900E+00 2.94758500E-03-1.09072900E-06 1.79256200E-10-1.11575800E-14    2
 3.28205500E+04-6.45322600E-01 3.36885100E+00 8.24180300E-03-8.76514500E-06    3
 5.56926200E-09-1.54000900E-12 3.31708100E+04 6.71331400E+00                   4
HCOH              000000H   2C   1O   1     G    300.00   5000.00 1398.00      1
 9.18749272E+00 1.52011152E-03-6.27603516E-07 1.09727989E-10-6.89655128E-15    2
 7.81364593E+03-2.73434214E+01-2.82157421E+00 3.57331702E-02-3.80861580E-05    3
 1.86205951E-08-3.45957838E-12 1.12956672E+04 3.48487757E+01                   4
CH3OH             000000H   4C   1O   1     G    300.00   5000.00 1000.00      1
 4.02906100E+00 9.37659300E-03-3.05025400E-06 4.35879300E-10-2.22472300E-14    2
-2.61579100E+04 2.37819600E+00 2.66011500E+00 7.34150800E-03 7.17005100E-06    3
-8.79319400E-09 2.39057000E-12-2.53534800E+04 1.12326300E+01                   4
CH2HCO            000000H   3C   2O   1     G    300.00   5000.00 1000.00      1
 5.97567000E+00 8.13059100E-03-2.74362400E-06 4.07030400E-10-2.17601700E-14    2
 4.90321800E+02-5.04525100E+00 3.40906200E+00 1.07385700E-02 1.89149200E-06    3
-7.15858300E-09 2.86738500E-12 1.52147700E+03 9.55829000E+00                   4
C3H6              000000H   6C   3          G    300.00   5000.00 1000.00      1
 6.73225700E+00 1.49083400E-02-4.94989900E-06 7.21202200E-10-3.76620400E-14    2
-9.23570300E+02-1.33133500E+01 1.49330700E+00 2.09251800E-02 4.48679400E-06    3
-1.66891200E-08 7.15814600E-12 1.07482600E+03 1.61453400E+01                   4
AC3H5             000000H   5C   3          G    300.00   5000.00 1378.00      1
 9.75762472E+00 1.00615154E-02-3.40608453E-06 5.25696641E-10-3.03917313E-14    2
 1.52845733E+04-2.86237172E+01 9.73013819E-01 2.81818597E-02-1.62938809E-05    3
 3.96194325E-09-2.25704537E-13 1.85230753E+04 1.93201408E+01                   4
PC3H5             000000H   5C   3          G    300.00   4000.00 1000.00      1
 9.20976400E+00 7.87141300E-03-7.72452300E-07-4.49735700E-10 8.37727200E-14    2
 2.85396700E+04-2.23237000E+01 3.16186300E+00 1.51810000E-02 2.72265900E-06    3
-5.17711200E-09 5.43528600E-14 3.09554800E+04 1.19797300E+01                   4
SC3H5             000000H   5C   3          G    300.00   4000.00 1000.00      1
 9.10101800E+00 7.96416800E-03-7.88494500E-07-4.56203600E-10 8.52921200E-14    2
 2.67068000E+04-2.15055900E+01 3.38581100E+00 1.40453400E-02 3.20412700E-06    3
-3.82412000E-09-9.05374200E-13 2.90906600E+04 1.12664900E+01                   4
CH2CHCHO          000000H   4C   3O   1     G    300.00   5000.00 1389.00      1
 9.95950056E+00 9.86563039E-03-3.42048051E-06 5.35978370E-10-3.13001966E-14    2
-1.27456196E+04-2.82995864E+01 5.80467878E-01 3.16384674E-02-2.27932718E-05    3
 8.42301579E-09-1.27327985E-12-9.47146816E+03 2.21264233E+01                   4
PC3H4             000000H   4C   3          G    300.00   4000.00 1400.00      1
 9.76810200E+00 5.21915100E-03-3.75314000E-07-2.99219100E-10 5.10787800E-14    2
 1.86027700E+04-3.02067800E+01 3.02973000E+00 1.49896100E-02-1.39850000E-06    3
-3.96961900E-09 1.38821700E-12 2.14840800E+04 8.00459400E+00                   4
AC3H4             000000H   4C   3          G    300.00   4000.00 1400.00      1
 9.77625600E+00 5.30213800E-03-3.70111800E-07-3.02638600E-10 5.08958100E-14    2
 1.95497200E+04-3.07706100E+01 2.53983100E+00 1.63343700E-02-1.76495000E-06    3
-4.64736500E-09 1.72913100E-12 2.25124300E+04 9.93570200E+00                   4
CH3CO             000000H   3C   2O   1     G    300.00   5000.00 1000.00      1
 5.61227900E+00 8.44988600E-03-2.85414700E-06 4.23837600E-10-2.26840400E-14    2
-5.18786300E+03-3.27494900E+00 3.12527800E+00 9.77822000E-03 4.52144800E-06    3
-9.00946200E-09 3.19371800E-12-4.10850800E+03 1.12288500E+01                   4
CH2CHCO           000000H   3C   3O   1     G    300.00   5000.00 1391.00      1
 9.48105566E+00 7.77714755E-03-2.71155669E-06 4.26495971E-10-2.49722495E-14    2
 3.20858016E+03-2.42916680E+01 7.83370450E-01 2.90353899E-02-2.28846927E-05    3
 9.25645234E-09-1.52213238E-12 6.13409525E+03 2.20858902E+01                   4
CH3CHCO           000000H   4C   3O   1     G    300.00   5000.00 1392.00      1
 9.40386796E+00 9.90994860E-03-3.34130605E-06 5.13787016E-10-2.96102254E-14    2
-1.42771281E+04-2.42902025E+01 2.69187311E+00 2.49761396E-02-1.61712107E-05    3
 5.46391115E-09-7.62496644E-13-1.18758805E+04 1.19898101E+01                   4
CH3HCO            000000H   4C   2O   1     G    300.00   5000.00 1000.00      1
 5.86865000E+00 1.07942400E-02-3.64553000E-06 5.41291200E-10-2.89684400E-14    2
-2.26456900E+04-6.01294600E+00 2.50569500E+00 1.33699100E-02 4.67195300E-06    3
-1.12814000E-08 4.26356600E-12-2.12458900E+04 1.33508900E+01                   4
CHOCHO            000000H   2C   2O   2     G    300.00   5000.00 1396.00      1
 9.75438561E+00 4.97645947E-03-1.74410483E-06 2.75586994E-10-1.61969892E-14    2
-2.95832896E+04-2.48038370E+01 1.88105121E+00 2.36386368E-02-1.83443295E-05    3
 6.84842963E-09-9.92733674E-13-2.69280190E+04 1.72994753E+01                   4
IC3H7             000000H   7C   3          G    300.00   5000.00 1373.00      1
 9.73563939E+00 1.43303634E-02-4.88106037E-06 7.56304810E-10-4.38380156E-14    2
 5.67000911E+03-2.78414926E+01 5.86358461E-01 3.21021065E-02-1.69517004E-05    3
 3.98986301E-09-2.87510333E-13 9.26003586E+03 2.26632577E+01                   4
NC3H7             000000H   7C   3          G    300.00   5000.00 1390.00      1
 9.43799350E+00 1.47160681E-02-5.03338420E-06 7.81317497E-10-4.35209260E-14    2
 7.27396508E+03-2.60136738E+01 1.13366571E-01 3.54171389E-02-2.28073697E-05    3
 7.88746806E-09-1.16856961E-12 1.06821595E+04 2.45520758E+01                   4
C2H5OH            000000H   6C   2O   1     G    300.00   5000.00 1000.00      1
 6.56243650E+00 1.52042220E-02-5.38967950E-06 8.62250110E-10-5.12897870E-14    2
-3.15256210E+04-9.47302020E+00 4.85869570E+00-3.74017260E-03 6.95553780E-05    3
-8.86547960E-08 3.51688350E-11-2.99961320E+04 4.80185450E+00                   4
C2H4OH            000000H   5C   2O   1     G    300.00   5000.00 1405.00      1
 8.75544496E+00 9.49453147E-03-3.08803575E-06 4.63537621E-10-2.62730044E-14    2
-8.09602047E+03-2.03271929E+01 7.76157606E-01 2.91002514E-02-2.13980569E-05    3
 8.16833894E-09-1.25591600E-12-5.46808396E+03 2.21060185E+01                   4
CH3CHOH           000000H   5C   2O   1     G    300.00   5000.00 1524.00      1
 7.95432747E+00 1.05008170E-02-3.50631590E-06 5.36174608E-10-3.07978459E-14    2
-8.62199768E+03-1.90411129E+01 2.10026806E+00 1.92626679E-02-5.17437436E-06    3
-1.96190582E-09 9.36397060E-13-6.12873036E+03 1.40909302E+01                   4
CH3CH2O           000000H   5C   2O   1     G    300.00   5000.00 1405.00      1
 8.31182392E+00 1.03426319E-02-3.39186089E-06 5.12212617E-10-2.91601713E-14    2
-6.13097954E+03-2.13985581E+01-2.71296378E-01 2.98839812E-02-1.97090548E-05    3
 6.37339893E-09-7.77965054E-13-3.16397196E+03 2.47706003E+01                   4
CH2CHCH2O         000000H   5C   3O   1     G    300.00   5000.00 1380.00      1
 1.02551752E+01 1.14983720E-02-3.84645659E-06 5.88910346E-10-3.38557923E-14    2
 6.39142592E+03-2.94665611E+01 1.19822582E+00 3.05579837E-02-1.80630276E-05    3
 4.86150033E-09-4.19854562E-13 9.70799566E+03 1.98555652E+01                   4
HCOOH             000000H   2C   1O   2     G    300.00   4000.00 1500.00      1
 7.95969800E+00 3.02453200E-03-3.43424200E-07-1.32676700E-10 2.52024000E-14    2
-5.02744500E+04-1.87220800E+01 9.32603100E-01 1.89100200E-02-1.55496400E-05    3
 7.29003100E-09-1.48369500E-12-4.76007100E+04 1.95065300E+01                   4
C3H8              000000H   8C   3          G    300.00   5000.00 1000.00      1
 7.52521700E+00 1.88903400E-02-6.28392400E-06 9.17937300E-10-4.81241000E-14    2
-1.64645500E+04-1.78439000E+01 8.96920800E-01 2.66898600E-02 5.43142500E-06    3
-2.12600100E-08 9.24333000E-12-1.39549200E+04 1.93553300E+01                   4
HOC2H4O2          000000H   5C   2O   3     G    300.00   5000.00 1395.00      1
 9.22339915E+00 1.41346358E-02-4.75283025E-06 7.28795964E-10-4.18969629E-14    2
-2.35984031E+04-1.53847386E+01 3.58811609E+00 2.99414161E-02-2.35156549E-05    3
 1.12635525E-08-2.28663686E-12-2.17409435E+04 1.42166729E+01                   4
N2                000000N   2               G    300.00   5000.00 1000.00      1
 2.92664000E+00 1.48797700E-03-5.68476100E-07 1.00970400E-10-6.75335100E-15    2
-9.22797700E+02 5.98052800E+00 3.29867700E+00 1.40824000E-03-3.96322200E-06    3
 5.64151500E-09-2.44485500E-12-1.02090000E+03 3.95037200E+00                   4
