!Master Mechanism:
!Donor Mechanism:
!WHeN duplicate reactiONs, kept frOm tHe additiON but limited tO NO aNd NO2
ELEMENTS
N AR HE H O 
C 
END
SPECIES
N2 AR HE H O2 
OH O H2 H2O HO2 
H2O2 CO CO2 HCO CH3 
CH4 CH2O T-CH2 S-CH2 C2H4 
CH3O C2H5 C2H6 CH C2H2 
C2H4OOH OC2H3OOH C2H3 CH2CHO C2H4O 
HCCO CH2CO C2H CH2OH CH3OH 
CH3CHO CH3CO C2H5OH CH2CH2OH CH3CHOH 
CH3CH2O C3H4 C3H3 C3H5 C3H6 
C3H8 I-C3H7 N-C3H7 C3H6OOH OC3H5OOH 
C4H10 PC4H9 SC4H9 C4H8 SC4H9O2 
C4H8OOH1-3 NC4KET13 CHCHO NO N2O 
NO2 NH3 HNO N N2H 
NH2 NH H2NO C4H6 C5H10 
C7H16 NC7H15 C7H14 NC7-QOOH NC7-OQOOH 
END

THERMO ALL
  300.000  1000.000  5000.000
N2                000000N   2               G     300.0    5000.0  1000.0      1
      2.92664E0   1.4879768E-3    -5.68476E-7  1.0097038E-10  -6.753351E-15    2
    -9.227977E2     5.980528E0     3.298677E0   1.4082404E-3   -3.963222E-6    3
    5.641515E-9  -2.444854E-12   -1.0208999E3     3.950372E0                   4
AR                000000AR  1               G     300.0    5000.0  1000.0      1
          2.5E0          0.0E0          0.0E0          0.0E0          0.0E0    2
     -7.45375E2        4.366E0          2.5E0          0.0E0          0.0E0    3
          0.0E0          0.0E0     -7.45375E2        4.366E0                   4
HE                000000HE  1               G     300.0    5000.0  1000.0      1
          2.5E0          0.0E0          0.0E0          0.0E0          0.0E0    2
     -7.45375E2  9.28723974E-1          2.5E0          0.0E0          0.0E0    3
          0.0E0          0.0E0     -7.45375E2  9.28723974E-1                   4
H                 000000H   1               G     300.0    5000.0  1000.0      1
   2.50000001E0-2.30842973E-11 1.61561948E-14-4.73515235E-18 4.98197357E-22    2
   2.54736599E4 -4.46682914E-1          2.5E0 7.05332819E-13-1.99591964E-15    3
 2.30081632E-18-9.27732332E-22   2.54736599E4 -4.46682853E-1                   4
O2                000000O   2               G     300.0    5000.0  1000.0      1
   3.28253784E0  1.48308754E-3 -7.57966669E-7 2.09470555E-10-2.16717794E-14    2
  -1.08845772E3   5.45323129E0   3.78245636E0 -2.99673416E-3  9.84730201E-6    3
 -9.68129509E-9 3.24372837E-12  -1.06394356E3   3.65767573E0                   4
OH                000000H   1O   1          G     300.0    5000.0  1000.0      1
   2.86472886E0  1.05650448E-3 -2.59082758E-7 3.05218674E-11-1.33195876E-15    2
   3.71885774E3   5.70164073E0   4.12530561E0 -3.22544939E-3  6.52764691E-6    3
 -5.79853643E-9 2.06237379E-12   3.38153812E3  -6.9043296E-1                   4
O                 000000O   1               G     300.0    5000.0  1000.0      1
   2.56942078E0 -8.59741137E-5  4.19484589E-8-1.00177799E-11 1.22833691E-15    2
   2.92175791E4   4.78433864E0    3.1682671E0 -3.27931884E-3  6.64306396E-6    3
 -6.12806624E-9 2.11265971E-12   2.91222592E4   2.05193346E0                   4
H2                000000H   2               G     300.0    5000.0  1000.0      1
    3.3372792E0 -4.94024731E-5  4.99456778E-7-1.79566394E-10 2.00255376E-14    2
  -9.50158922E2  -3.20502331E0   2.34433112E0  7.98052075E-3  -1.9478151E-5    3
  2.01572094E-8-7.37611761E-12  -9.17935173E2  6.83010238E-1                   4
H2O               000000H   2O   1          G     300.0    5000.0  1000.0      1
   3.03399249E0  2.17691804E-3 -1.64072518E-7 -9.7041987E-11 1.68200992E-14    2
  -3.00042971E4    4.9667701E0   4.19864056E0  -2.0364341E-3  6.52040211E-6    3
 -5.48797062E-9 1.77197817E-12  -3.02937267E4 -8.49032208E-1                   4
HO2               000000H   1O   2          G     300.0    5000.0  1000.0      1
    4.0172109E0  2.23982013E-3  -6.3365815E-7  1.1424637E-10-1.07908535E-14    2
   1.11856713E2   3.78510215E0   4.30179801E0 -4.74912051E-3  2.11582891E-5    3
 -2.42763894E-8 9.29225124E-12    2.9480804E2   3.71666245E0                   4
H2O2              000000H   2O   2          G     300.0    5000.0  1000.0      1
   4.16500285E0  4.90831694E-3 -1.90139225E-6 3.71185986E-10-2.87908305E-14    2
  -1.78617877E4   2.91615662E0   4.27611269E0 -5.42822417E-4  1.67335701E-5    3
 -2.15770813E-8 8.62454363E-12  -1.77025821E4   3.43505074E0                   4
CO                000000O   1C   1          G     300.0    5000.0  1000.0      1
   2.71518561E0  2.06252743E-3 -9.98825771E-7 2.30053008E-10-2.03647716E-14    2
  -1.41518724E4   7.81868772E0   3.57953347E0  -6.1035368E-4  1.01681433E-6    3
 9.07005884E-10-9.04424499E-13   -1.4344086E4   3.50840928E0                   4
CO2               000000O   2C   1          G     300.0    5000.0  1000.0      1
   3.85746029E0  4.41437026E-3 -2.21481404E-6 5.23490188E-10-4.72084164E-14    2
   -4.8759166E4   2.27163806E0   2.35677352E0  8.98459677E-3 -7.12356269E-6    3
  2.45919022E-9-1.43699548E-13  -4.83719697E4   9.90105222E0                   4
HCO               000000H   1O   1C   1     G     300.0    5000.0  1000.0      1
   2.77217438E0  4.95695526E-3 -2.48445613E-6 5.89161778E-10-5.33508711E-14    2
   4.01191815E3   9.79834492E0   4.22118584E0 -3.24392532E-3  1.37799446E-5    3
 -1.33144093E-8 4.33768865E-12   3.83956496E3   3.39437243E0                   4
CH3               000000H   3C   1          G     300.0    5000.0  1000.0      1
   2.28571772E0  7.23990037E-3 -2.98714348E-6 5.95684644E-10-4.67154394E-14    2
   1.67755843E4   8.48007179E0    3.6735904E0  2.01095175E-3  5.73021856E-6    3
 -6.87117425E-9 2.54385734E-12   1.64449988E4   1.60456433E0                   4
CH4               000000H   4C   1          G     300.0    5000.0  1000.0      1
   7.4851495E-2  1.33909467E-2 -5.73285809E-6  1.22292535E-9 -1.0181523E-13    2
  -9.46834459E3    1.8437318E1   5.14987613E0 -1.36709788E-2  4.91800599E-5    3
 -4.84743026E-8 1.66693956E-11  -1.02466476E4  -4.64130376E0                   4
CH2O              000000H   2O   1C   1     G     300.0    5000.0  1000.0      1
   1.76069008E0  9.20000082E-3 -4.42258813E-6  1.00641212E-9 -8.8385564E-14    2
  -1.39958323E4    1.3656323E1   4.79372315E0 -9.90833369E-3  3.73220008E-5    3
 -3.79285261E-8 1.31772652E-11  -1.43089567E4    6.028129E-1                   4
T-CH2             000000H   2C   1          G     300.0    5000.0  1000.0      1
   2.87410113E0  3.65639292E-3 -1.40894597E-6 2.60179549E-10-1.87727567E-14    2
    4.6263604E4   6.17119324E0   3.76267867E0  9.68872143E-4  2.79489841E-6    3
 -3.85091153E-9 1.68741719E-12   4.60040401E4   1.56253185E0                   4
S-CH2             000000H   2C   1          G     300.0    5000.0  1000.0      1
   2.29203842E0  4.65588637E-3 -2.01191947E-6    4.17906E-10-3.39716365E-14    2
   5.09259997E4   8.62650169E0   4.19860411E0 -2.36661419E-3   8.2329622E-6    3
 -6.68815981E-9 1.94314737E-12   5.04968163E4 -7.69118967E-1                   4
C2H4              000000H   4C   2          G     300.0    5000.0  1000.0      1
   2.03611116E0  1.46454151E-2 -6.71077915E-6  1.47222923E-9-1.25706061E-13    2
   4.93988614E3   1.03053693E1   3.95920148E0 -7.57052247E-3  5.70990292E-5    3
 -6.91588753E-8 2.69884373E-11   5.08977593E3   4.09733096E0                   4
CH3O              000000H   3O   1C   1     G     300.0    5000.0  1000.0      1
   4.75779238E0  7.44142474E-3 -2.69705176E-6 4.38090504E-10-2.63537098E-14    2
   3.90139164E2  -1.96680028E0   3.71180502E0 -2.80463306E-3  3.76550971E-5    3
 -4.73072089E-8  1.8658842E-11   1.30772484E3   6.57240864E0                   4
C2H5              000000H   5C   2          G     300.0    5000.0  1000.0      1
   1.95465642E0  1.73972722E-2 -7.98206668E-6  1.75217689E-9-1.49641576E-13    2
     1.285752E4   1.34624343E1   4.30646568E0 -4.18658892E-3  4.97142807E-5    3
 -5.99126606E-8 2.30509004E-11   1.28416265E4   4.70720924E0                   4
C2H6              000000H   6C   2          G     300.0    5000.0  1000.0      1
    1.0718815E0  2.16852677E-2 -1.00256067E-5  2.21412001E-9 -1.9000289E-13    2
  -1.14263932E4   1.51156107E1   4.29142492E0  -5.5015427E-3  5.99438288E-5    3
 -7.08466285E-8 2.68685771E-11  -1.15222055E4   2.66682316E0                   4
CH                000000H   1C   1          G     300.0    5000.0  1000.0      1
   2.87846473E0  9.70913681E-4  1.44445655E-7-1.30687849E-10 1.76079383E-14    2
   7.10124364E4   5.48497999E0   3.48981665E0  3.23835541E-4 -1.68899065E-6    3
  3.16217327E-9-1.40609067E-12   7.07972934E4   2.08401108E0                   4
C2H2              000000H   2C   2          G     300.0    5000.0  1000.0      1
   4.14756964E0  5.96166664E-3 -2.37294852E-6 4.67412171E-10-3.61235213E-14    2
   2.59359992E4  -1.23028121E0  8.08681094E-1  2.33615629E-2 -3.55171815E-5    3
  2.80152437E-8-8.50072974E-12   2.64289807E4   1.39397051E1                   4
C2H4OOH           000000H   5O   2C   2     G     300.0    5000.0  1000.0      1
   1.16258666E1  1.00826346E-2 -3.47934362E-6  5.4339422E-10-3.16569294E-14    2
  -9.10568267E2  -3.18522902E1  8.13237801E-1    3.900634E-2 -3.40643855E-5    3
  1.55066226E-8 -2.8406984E-12   2.50785787E3   2.49684459E1                   4
OC2H3OOH          000000H   4O   3C   2     G     300.0    5000.0  1000.0      1
   1.24064339E1  9.47233784E-3 -3.28107928E-6 5.13772211E-10-2.99872803E-14    2
  -3.49123142E4  -3.39479874E1   5.52382546E0  2.42068306E-2 -1.52898974E-5    3
  5.01728362E-9-6.96406358E-13  -3.23406789E4   3.57240645E0                   4
C2H3              000000H   3C   2          G     300.0    5000.0  1000.0      1
     3.016724E0  1.03302292E-2 -4.68082349E-6  1.01763288E-9-8.62607041E-14    2
   3.46128739E4   7.78732378E0   3.21246645E0  1.51479162E-3  2.59209412E-5    3
 -3.57657847E-8 1.47150873E-11   3.48598468E4   8.51054025E0                   4
CH2CHO            000000H   3O   1C   2     G     300.0    5000.0  1000.0      1
    5.1662006E0   1.0847826E-2  -4.4658368E-6  8.0628548E-10 -4.8410193E-14    2
   -7.3199347E2   -1.9633361E0    1.0134001E0   2.2681467E-2  -1.5733944E-5    3
   4.0491503E-9  2.9599012E-13    3.8042853E2    1.9356552E1                   4
C2H4O             000000H   4O   1C   2     G     300.0    5000.0  1000.0      1
    5.4041108E0   1.1723059E-2  -4.2263137E-6  6.8372451E-10 -4.0984863E-14    2
   -2.2593122E4   -3.4807917E0    4.7294595E0  -3.1932858E-3   4.7534921E-5    3
  -5.7458611E-8  2.1931112E-11   -2.1572878E4    4.1030159E0                   4
HCCO              000000H   1O   1C   2     G     300.0    5000.0  1000.0      1
    5.6282058E0   4.0853401E-3  -1.5934547E-6  2.8626052E-10 -1.9407832E-14    2
    1.9327215E4   -3.9302595E0    2.2517214E0   1.7655021E-2  -2.3729101E-5    3
   1.7275759E-8 -5.0664811E-12    2.0059449E4    1.2490417E1                   4
CH2CO             000000H   2O   1C   2     G     300.0    5000.0  1000.0      1
   4.51129732E0  9.00359745E-3 -4.16939635E-6 9.23345882E-10-7.94838201E-14    2
  -7.55105311E3  6.32247205E-1    2.1358363E0  1.81188721E-2 -1.73947474E-5    3
  9.34397568E-9-2.01457615E-12  -7.04291804E3    1.2215648E1                   4
C2H               000000H   1C   2          G     300.0    5000.0  1000.0      1
   3.16780652E0  4.75221902E-3 -1.83787077E-6 3.04190252E-10 -1.7723277E-14    2
    6.7121065E4   6.63589475E0   2.88965733E0  1.34099611E-2 -2.84769501E-5    3
  2.94791045E-8-1.09331511E-11   6.68393932E4   6.22296438E0                   4
CH2OH             000000H   3O   1C   1     G     300.0    5000.0  1000.0      1
   5.09312037E0   5.9475855E-3 -2.06496524E-6 3.23006703E-10-1.88125052E-14    2
  -4.05813228E3  -1.84690613E0   4.47832317E0 -1.35069687E-3  2.78483707E-5    3
 -3.64867397E-8 1.47906775E-11  -3.52476728E3   3.30911984E0                   4
CH3OH             000000H   4O   1C   1     G     300.0    5000.0  1000.0      1
   1.78970791E0  1.40938292E-2 -6.36500835E-6  1.38171085E-9 -1.1706022E-13    2
  -2.53748747E4   1.45023623E1   5.71539582E0 -1.52309129E-2  6.52441155E-5    3
 -7.10806889E-8 2.61352698E-11  -2.56427656E4  -1.50409823E0                   4
CH3CHO            000000H   4O   1C   2     G     300.0    5000.0  1000.0      1
    5.4041108E0   1.1723059E-2  -4.2263137E-6  6.8372451E-10 -4.0984863E-14    2
   -2.2593122E4   -3.4807917E0    4.7294595E0  -3.1932858E-3   4.7534921E-5    3
  -5.7458611E-8  2.1931112E-11   -2.1572878E4    4.1030159E0                   4
CH3CO             000000H   3O   1C   2     G     300.0    5000.0  1000.0      1
    5.9447731E0   7.8667205E-3  -2.8865882E-6  4.7270875E-10 -2.8599861E-14    2
   -3.7873075E3   -5.0136751E0    4.1634257E0   -2.326161E-4    3.426782E-5    3
  -4.4105227E-8  1.7275612E-11   -2.6574529E3     7.346828E0                   4
C2H5OH            000000H   6O   1C   2     G     300.0    5000.0  1000.0      1
    4.3471712E0     1.86288E-2   -6.779467E-6   8.165926E-10          0.0E0    2
  -3.06615743E4   3.24247304E0    5.765358E-1    2.894512E-2    -1.61002E-5    3
    3.591641E-9          0.0E0    -2.963595E4     2.270813E1                   4
CH2CH2OH          000000H   5O   1C   2     G     300.0    5000.0  1000.0      1
   7.52244726E0  1.10492715E-2 -3.72576465E-6 5.72827397E-10-3.30061759E-14    2
  -7.29337464E3   -1.2496075E1   1.17714711E0  2.48115685E-2 -1.50299503E-5    3
  4.79006785E-9-6.40994211E-13  -4.95369043E3   2.20081586E1                   4
CH3CHOH           000000H   5O   1C   2     G     300.0    5000.0  1000.0      1
   7.26570301E0  1.09588926E-2 -3.63662803E-6  5.5365983E-10-3.17012322E-14    2
  -8.64371441E3  -1.06822851E1   1.83974631E0  1.87789371E-2 -4.60544253E-6    3
  -2.1311699E-9 9.43772653E-13  -6.29595195E3   2.01446141E1                   4
CH3CH2O           000000H   5O   1C   2     G     300.0    5000.0  1000.0      1
   8.31182392E0  1.03426319E-2 -3.39186089E-6 5.12212617E-10-2.91601713E-14    2
  -6.13097954E3  -2.13985581E1 -2.71296378E-1  2.98839812E-2 -1.97090548E-5    3
  6.37339893E-9-7.77965054E-13  -3.16397196E3   2.47706003E1                   4
C3H4              000000H   4C   3          G     300.0    5000.0  1000.0      1
    6.3168722E0   1.1133728E-2  -3.9629378E-6  6.3564238E-10  -3.787554E-14    2
    2.0117495E4   -1.0995766E1    2.6130445E0   1.2122575E-2    1.853988E-5    3
  -3.4525149E-8  1.5335079E-11    2.1541567E4    1.0226139E1                   4
C3H3              000000H   3C   3          G     300.0    5000.0  1000.0      1
    7.1422188E0  7.61902005E-3  -2.6745995E-6 4.24914801E-10-2.51475415E-14    2
   3.89087427E4  -1.25848436E1   1.35110927E0  3.27411223E-2 -4.73827135E-5    3
  3.76309808E-8-1.18540923E-11   4.01057783E4   1.52058924E1                   4
C3H5              PD5-98H   5C   3          G     300.0    3000.0  1000.0      1
    6.5007877E0   1.4324731E-2  -5.6781632E-6   1.1080801E-9 -9.0363887E-14    2
    1.7482449E4    -1.124305E1    1.3631835E0   1.9813821E-2    1.249706E-5    3
  -3.3355555E-8  1.5846571E-11    1.9245629E4    1.7173214E1                   4
C3H6              000000H   6C   3          G     300.0    5000.0  1000.0      1
     6.732257E0    1.490834E-2   -4.949899E-6   7.212022E-10  -3.766204E-14    2
    -9.235703E2    -1.331335E1     1.493307E0    2.092518E-2    4.486794E-6    3
   -1.668912E-8   7.158146E-12     1.074826E3     1.614534E1                   4
C3H8              000000H   8C   3          G     300.0    5000.0  1000.0      1
    7.5244152E0   1.8898282E-2  -6.2921041E-6  9.2161457E-10 -4.8684478E-14    2
   -1.6564394E4   -1.7838375E1   9.2851093E-1   2.6460566E-2   6.0332446E-6    3
  -2.1914953E-8  9.4961544E-12   -1.4057907E4    1.9225538E1                   4
I-C3H7            000000H   7C   3          G     300.0    5000.0  1000.0      1
    6.5192741E0   1.7220104E-2  -5.7364217E-6  8.4130732E-10 -4.4565913E-14    2
    7.3227193E3   -9.0830215E0    1.4449199E0   2.0999112E-2   7.7036222E-6    3
  -1.8476253E-8  7.1282962E-12    9.4223724E3    2.0116317E1                   4
N-C3H7            000000H   7C   3          G     300.0    5000.0  1000.0      1
    7.7097479E0   1.6031485E-2  -5.2720238E-6  7.5888352E-10 -3.8862719E-14    2
    7.9762236E3   -1.5515297E1    1.0491173E0   2.6008973E-2   2.3542516E-6    3
  -1.9595132E-8  9.3720207E-12    1.0312346E4    2.1136034E1                   4
C3H6OOH           000000H   7O   2C   3     G     300.0    5000.0  1000.0      1
    1.4613998E1  1.43723015E-2 -4.88635144E-6  7.5651962E-10-4.38364992E-14    2
  -6.46101457E3  -4.57478245E1   1.91005011E0  4.11666833E-2 -2.51630217E-5    3
  7.11856873E-9-6.98838732E-13  -1.79305093E3   2.34514457E1                   4
OC3H5OOH          000000H   6O   3C   3     G     300.0    5000.0  1000.0      1
   1.70285271E1  1.30716784E-2 -4.59310856E-6 7.26135156E-10-4.26658337E-14    2
  -4.16334217E4  -5.92513577E1  7.68933034E-1   5.4690588E-2 -4.65072405E-5    3
  2.03159585E-8-3.58398999E-12  -3.63238861E4   2.68291637E1                   4
C4H10             -THERMH  10C   4          G     300.0    5000.0  1392.0      1
   1.24940183E1  2.17726258E-2 -7.44272215E-6  1.15487023E-9-6.69712949E-14    2
  -2.18403437E4  -4.45558921E1 -4.55756824E-1  4.80323389E-2 -2.65497552E-5    3
    6.925447E-9-6.38317504E-13  -1.68960904E4   2.64870966E1                   4
PC4H9             -THERMH   9C   4          G     300.0    5000.0  1391.0      1
   1.20779744E1  1.96264778E-2 -6.71302199E-6  1.04206424E-9-6.04469282E-14    2
   3.22550473E3  -3.87719384E1  3.20730933E-1  4.34654454E-2  -2.4058497E-5    3
  6.28245308E-9-5.80113166E-13   7.71490893E3   2.57301085E1                   4
SC4H9             -THERMH   9C   4          G     300.0    5000.0  1381.0      1
   1.16934304E1  1.96402287E-2 -6.65306517E-6  1.02631895E-9-5.92826294E-14    2
   1.96382429E3  -3.61626672E1  8.49159986E-1   3.8208532E-2 -1.49626797E-5    3
 2.04499211E-10 8.24254437E-13   6.38832956E3   2.44466606E1                   4
C4H8                    H   8C   4          G     300.0    5000.0  1000.0      1
     2.053584E0     3.43505E-2  -1.5883196E-5    3.308966E-9  -2.536104E-13    2
    -2.139723E3    1.5543201E1     1.181138E0    3.085338E-2    5.086524E-6    3
   -2.465488E-8  1.1110192E-11      -1.7904E3     2.106247E1                   4
SC4H9O2           -THERMH   9O   2C   4     G     300.0    5000.0  1389.0      1
   1.64031135E1  2.09361006E-2 -7.23393011E-6  1.13058996E-9-6.58938667E-14    2
  -1.85074517E4  -5.77331636E1   1.32689044E0  5.62785583E-2 -4.01717786E-5    3
  1.57120967E-8-2.62948443E-12  -1.31557057E4   2.34069659E1                   4
C4H8OOH1-3        -THERMH   9O   2C   4     G     300.0    5000.0  1377.0      1
    1.7644217E1  1.91706536E-2 -6.57168641E-6  1.02246571E-9-5.94304735E-14    2
   -1.0185928E4  -6.17115813E1   1.94106276E0  5.18789351E-2 -3.10411683E-5    3
  8.63568881E-9-8.42841994E-13  -4.34315962E3   2.40230471E1                   4
NC4KET13          -THERMH   8O   3C   4     G     300.0    5000.0  1386.0      1
   1.96430808E1  1.80940566E-2 -6.33063232E-6 9.97860399E-10-5.85076458E-14    2
  -4.59588851E4  -7.16905094E1   2.74883461E0  5.86936745E-2 -4.49605895E-5    3
   1.8320013E-8-3.11765369E-12  -4.01065878E4    1.8807209E1                   4
CHCHO                   H   2O   1C   2     G     200.0    3000.0  1000.0      1
   5.96287949E0  7.99898746E-3 -4.30605647E-6  1.11076174E-9-1.11415021E-13    2
   2.87255915E4  -5.17392496E0   2.06863692E0  1.87233234E-2 -1.21318942E-5    3
-3.33726595E-10 2.32881768E-12   2.97393543E4   1.47865706E1                   4
NO                RUS-89O   1N   1          G     200.0    6000.0  1000.0      1
   3.26071234E0  1.19101135E-3 -4.29122646E-7 6.94481463E-11-4.03295681E-15    2
   9.92143132E3   6.36900518E0   4.21859896E0 -4.63988124E-3  1.10443049E-5    3
 -9.34055507E-9 2.80554874E-12   9.84509964E3   2.28061001E0                   4
N2O               L-7-88O   1N   2          G     200.0    6000.0  1000.0      1
    4.8230729E0   2.6270251E-3  -9.5850872E-7  1.6000712E-10 -9.7752302E-15    2
    8.0734047E3   -2.2017208E0    2.2571502E0   1.1304728E-2  -1.3671319E-5    3
   9.6819803E-9 -2.9307182E-12    8.7417746E3    1.0757992E1                   4
NO2               L-7-88O   2N   1          G     200.0    6000.0  1000.0      1
     4.884754E0   2.1723955E-3  -8.2806909E-7   1.574751E-10 -1.0510895E-14    2
    2.3164982E3  -1.1741695E-1    3.9440312E0   -1.585429E-3   1.6657812E-5    3
  -2.0475426E-8  7.8350564E-12     2.896618E3    6.3119919E0                   4
NH3               RUS-89H   3N   1          G     200.0    6000.0  1000.0      1
   2.71709692E0  5.56856338E-3 -1.76886396E-6  2.6741726E-10-1.52731419E-14    2
  -6.58451989E3   6.09289837E0   4.30177808E0  -4.7712733E-3  2.19341619E-5    3
 -2.29856489E-8 8.28992268E-12  -6.74806394E3 -6.90644393E-1                   4
HNO               L12-89H   1O   1N   1     G     200.0    3500.0  1000.0      1
    3.1655229E0   3.0000862E-3  -3.9436619E-7 -3.8575815E-11  7.0807189E-15    2
    1.1194426E4    7.6477833E0    4.5352475E0  -5.6853972E-3    1.851985E-5    3
  -1.7188273E-8  5.5583207E-12    1.1039881E4    1.7431919E0                   4
N                 120186N   1               G     300.0    5000.0  1000.0      1
     2.450268E0   1.0661458E-4   -7.465337E-8   1.879652E-11 -1.0259839E-15    2
     5.611604E4     4.448758E0     2.503071E0   -2.180018E-5    5.420529E-8    3
   -5.64756E-11   2.099904E-14      5.60989E4     4.167566E0                   4
N2H               T07-93H   1N   2          G     200.0    6000.0  1000.0      1
    3.7667545E0   2.8915081E-3   -1.041662E-6  1.6842594E-10 -1.0091896E-14    2
    2.8650697E4    4.4705068E0    4.3446927E0  -4.8497072E-3   2.0059459E-5    3
  -2.1726464E-8  7.9469538E-12    2.8791973E4    2.9779411E0                   4
NH2               L12-89H   2N   1          G     200.0    6000.0  1000.0      1
    2.8476611E0   3.1428453E-3  -8.9866557E-7  1.3032357E-10 -7.4885356E-15    2
    2.1823916E4    6.4718133E0    4.2055601E0  -2.1355282E-3   7.2682021E-6    3
  -5.9302799E-9  1.8067218E-12    2.1535223E4  -1.4663231E-1                   4
NH                L11-89H   1N   1          G     200.0    6000.0  1000.0      1
    2.7836929E0   1.3298429E-3  -4.2478047E-7  7.8348504E-11  -5.504447E-15    2
    4.2134514E4    5.7407798E0    3.4929084E0   3.1179197E-4  -1.4890484E-6    3
   2.4816442E-9 -1.0356967E-12    4.1894294E4    1.8483277E0                   4
H2NO              102290H   2O   1N   1     G     300.0    4000.0  1500.0      1
     5.673346E0    2.298837E-3   -1.774446E-7  -1.103482E-10   1.859762E-14    2
     5.569325E3     -6.15354E0      2.53059E0    8.596035E-3    -5.47103E-6    3
    2.276249E-9  -4.648073E-13      6.86803E3     1.126651E1                   4
C4H6                    H   6C   4          G     300.0    3000.0  1000.0      1
     9.843862E0    1.544517E-2     -5.7172E-6    1.014516E-9  -6.865593E-14    2
     9.077228E3    -2.800343E1     1.110787E1   -6.302794E-3     5.36192E-5    3
   -5.914519E-8   2.123863E-11     9.686877E3    -2.992869E1                   4
C5H10             0N---0H  10C   5          G     300.0    5000.0  1000.0      1
   4.62768794E0  3.99163471E-2 -1.76584355E-5  2.94527974E-9          0.0E0    2
  -5.90930391E3   3.39515508E0  -1.36099451E0  5.87684877E-2 -3.93332993E-5    3
  1.36933176E-8-1.93663167E-12  -4.42142034E3   3.36502744E1                   4
C7H16             0N---0H  16C   7          G     300.0    5000.0  1000.0      1
   5.15327664E0  6.58448144E-2 -2.99765849E-5  5.12173194E-9          0.0E0    2
  -2.73334877E4   2.64465624E0  -1.49861609E0  8.56446777E-2 -5.10778379E-5    3
  1.45322121E-8-1.45719946E-12  -2.56089558E4   3.65725432E1                   4
NC7H15                  H  15C   7          G     300.0    5000.0  1382.0      1
   2.16371448E1  3.23324804E-2 -1.09273807E-5   1.6835706E-9-9.71774091E-14    2
  -1.05877217E4  -8.52228493E1 -3.79155767E-2   7.5672657E-2 -4.07473634E-5    3
  9.32678943E-9-4.92360745E-13  -2.35605303E3   3.37321506E1                   4
C7H14                   H  14C   7          G     300.0    5000.0  1390.0      1
   2.06190401E1  3.14852991E-2 -1.07162057E-5  1.65827662E-9-9.59911785E-14    2
  -1.96710875E4  -8.22507478E1  -1.16533279E0  7.90439806E-2 -4.96101666E-5    3
  1.58569009E-8-2.05346433E-12  -1.17362359E4    3.5987107E1                   4
NC7-QOOH          -thermH  15O   2C   7     G     300.0    5000.0  1389.0      1
   2.74034778E1  3.27527893E-2  -1.1299177E-5  1.76444649E-9-1.02786945E-13    2
  -2.48636651E4  -1.10201978E2  8.49786005E-1  9.25107196E-2 -6.25359834E-5    3
   2.1788039E-8-3.12720398E-12  -1.53640679E4   3.32997487E1                   4
NC7-OQOOH         -thermH  14O   3C   7     G     300.0    5000.0  1387.0      1
   2.88330388E1  3.20168096E-2 -1.11508456E-5  1.75226159E-9-1.02520451E-13    2
  -6.20142474E4  -1.17499704E2   1.52936692E0  9.58173466E-2  -6.9668852E-5    3
  2.69540382E-8-4.38728126E-12  -5.23839542E4   2.93851334E1                   4
END

TRANSPORT ALL
N2 1 97.53 3.621 0.0 1.76 4.0
AR 0 136.5 3.33 0.0 0.0 0.0
! *[dat]
HE 0 10.2 2.576 0.0 0.0 0.0
H 0 145.0 2.05 0.0 0.0 0.0
O2 1 107.4 3.458 0.0 1.6 3.8
OH 1 80.0 2.75 0.0 0.0 0.0
O 0 80.0 2.75 0.0 0.0 0.0
H2 1 38.0 2.92 0.0 0.79 280.0
H2O 2 572.4 2.605 1.844 0.0 4.0
! *[dat]
HO2 2 107.4 3.458 0.0 0.0 1.0
H2O2 2 107.4 3.458 0.0 0.0 3.8
CO 1 98.1 3.65 0.0 1.95 1.8
CO2 1 244.0 3.763 0.0 2.65 2.1
HCO 2 498.0 3.59 0.0 0.0 0.0
CH3 1 144.0 3.8 0.0 0.0 0.0
CH4 2 141.4 3.746 0.0 2.6 13.0
CH2O 2 498.0 3.59 0.0 0.0 2.0
T-CH2 1 144.0 3.8 0.0 0.0 0.0
S-CH2 1 144.0 3.8 0.0 0.0 0.0
! NMM[dat]
C2H4 2 238.4 3.496 0.0 0.0 1.5
CH3O 2 417.0 3.69 1.7 0.0 2.0
! NMM[dat]
C2H5 2 247.5 4.35 0.0 0.0 1.5
! NMM[dat]
C2H6 2 247.5 4.35 0.0 0.0 1.5
CH 1 80.0 2.75 0.0 0.0 0.0
! NMM[dat]
C2H2 1 265.3 3.721 0.0 0.0 2.5
C2H4OOH 2 470.6 4.41 0.0 0.0 1.5
OC2H3OOH 2 470.6 4.41 0.0 0.0 1.5
! NMM[dat]
C2H3 2 265.3 3.721 0.0 0.0 1.0
CH2CHO 2 436.0 3.97 0.0 0.0 2.0
!=CH3HCO konnov[dat]
C2H4O 2 436.0 3.97 0.0 0.0 2.0
! *[dat]
HCCO 2 150.0 2.5 0.0 0.0 1.0
CH2CO 2 436.0 3.97 0.0 0.0 2.0
! NMM[dat]
C2H 1 265.3 3.721 0.0 0.0 2.5
CH2OH 2 417.0 3.69 1.7 0.0 2.0
! SVE[dat]
CH3OH 2 481.8 3.626 0.0 0.0 1.0
CH3CHO 2 436.0 3.97 0.0 0.0 2.0
CH3CO 2 436.0 3.97 0.0 0.0 2.0
!ethanol[dat]
! NMM[dat]
C2H5OH 2 470.6 4.41 0.0 0.0 1.5
! MI[dat]
CH2CH2OH 2 362.6 4.53 0.0 0.0 1.5
! MI[dat]
CH3CHOH 2 362.6 4.53 0.0 0.0 1.5
! NMM	!JLI_MV[dat]
CH3CH2O 2 470.6 4.41 0.0 0.0 1.5
! NMM[dat]
C3H4 1 324.8 4.29 0.0 0.0 1.0
! NMM[dat]
C3H3 1 324.8 4.29 0.0 0.0 1.0
C3H5 2 316.0 4.22 0.0 0.0 1.0
! NMM[dat]
C3H6 2 307.8 4.14 0.0 0.0 1.0
!IC3H7O             2   468.300     4.760     0.000     0.000     1.000 ! NMM[dat]
!NC3H7O             2   487.900     4.820     0.000     0.000     1.000 ! NMM[dat]
! NMM[dat]
C3H8 2 303.4 4.81 0.0 0.0 1.0
! NMM[dat]
I-C3H7 2 303.4 4.81 0.0 0.0 1.0
! NMM[dat]
N-C3H7 2 303.4 4.81 0.0 0.0 1.0
!adopted from MI[dat]
C3H6OOH 2 487.9 4.82 0.0 0.0 1.0
OC3H5OOH 2 487.9 4.82 0.0 0.0 1.0
!C4H10                 2   350.9   5.206   0.0 0.0 1.0 !   WJP[dat]
! Ranzi[dat]
C4H10 2 352.0 5.24 0.0 0.0 1.0
!IC4H8              2   355.000     4.650     0.000     0.000     1.000 ! NMM[dat]
! NMM[dat]
PC4H9 2 352.0 5.24 0.0 0.0 1.0
! NMM[dat]
SC4H9 2 352.0 5.24 0.0 0.0 1.0
! NMM[dat]
C4H8 2 355.0 4.65 0.0 0.0 1.0
! WJP[dat]
SC4H9O2 2 496.0 5.2 0.0 0.0 1.0
! WJP[dat]
C4H8OOH1-3 2 496.0 5.2 0.0 0.0 1.0
!  WJP[dat]
NC4KET13 2 476.0 5.778 2.6 0.0 1.0
CHCHO 2 436.0 3.97 0.0 0.0 2.0
NO 1 97.53 3.621 0.0 1.76 4.0
! *[dat]
N2O 1 232.4 3.828 0.0 0.0 1.0
! *[dat]
NO2 2 200.0 3.5 0.0 0.0 1.0
NH3 2 481.0 2.92 1.47 0.0 10.0
! *[dat]
HNO 2 116.7 3.492 0.0 0.0 1.0
! *[dat]
N 0 71.4 3.298 0.0 0.0 0.0
! *[dat]
N2H 2 71.4 3.798 0.0 0.0 1.0
NH2 2 80.0 2.65 0.0 2.26 4.0
NH 1 80.0 2.65 0.0 0.0 4.0
! JAM[dat]
H2NO 2 116.7 3.492 0.0 0.0 1.0
! NMM[dat]
C4H6 2 357.0 4.72 0.0 0.0 1.0
!   WJP[dat]
C5H10 2 386.2 5.489 0.4 0.0 1.0
!   TCPC[dat]
C7H16 2 459.6 6.253 0.0 0.0 1.0
!   Ranzi[dat]
NC7H15 2 459.98 6.31 0.0 0.0 1.0
!   TCPC[dat]
C7H14 2 457.8 6.173 0.3 0.0 1.0
!WJP[dat]
NC7-QOOH 2 561.0 6.317 1.7 0.0 1.0
!1c8h17oh wjp[dat]
NC7-OQOOH 2 581.3 6.506 2.0 0.0 1.0
END

REACTIONS MOLES CAL/MOLE
H+O2=OH+O    3.52E16 -0.7 1.706979E4
H2+O=OH+H    5.06E4 2.67 6.29063E3
H2+OH=H2O+H    1.17E9 1.3 3.63528E3
H2O+O=2OH    7.0E5 2.33 1.454828E4
2H+M=H2+M    1.3E18 -1.0 0.0E0
    AR/0.5/
    HE/0.5/
    H2/2.5/
    H2O/12.0/
    CO/1.9/
    CO2/3.8/
H+OH+M=H2O+M    4.0E22 -2.0 0.0E0
    AR/0.38/
    HE/0.38/
    H2/2.5/
    H2O/12.0/
    CO/1.9/
    CO2/3.8/
2O+M=O2+M    6.17E15 -0.5 0.0E0
    AR/0.2/
    HE/0.2/
    H2/2.5/
    H2O/12.0/
    CO/1.9/
    CO2/3.8/
H+O+M=OH+M    4.71E18 -1.0 0.0E0
    AR/0.75/
    HE/0.75/
    H2/2.5/
    H2O/12.0/
    CO/1.9/
    CO2/3.8/
H+O2(+M)=HO2(+M)    4.65E12 0.44 0.0E0
    AR/0.7/
    HE/0.7/
    H2/2.5/
    H2O/16.0/
    CO/1.2/
    CO2/2.4/
    C2H6/1.5/
    LOW/5.75E19 -1.4E0 0.0E0/
    TROE/5.0E-1 1.0E-30 1.0E30/
HO2+H=2OH    7.08E13 0.0 2.9493E2
HO2+H=H2+O2    1.66E13 0.0 8.229E2
HO2+H=H2O+O    3.1E13 0.0 1.72084E3
HO2+O=OH+O2    2.0E13 0.0 0.0E0
HO2+OH=H2O+O2    7.0E12 0.0 -1.09465E3
    DUP
HO2+OH=H2O+O2    4.5E14 0.0 1.092973E4
    DUP
2OH(+M)=H2O2(+M)    9.55E13 -0.27 0.0E0
    AR/0.7/
    HE/0.4/
    H2/2.5/
    H2O/6.0/
    H2O2/6.0/
    CO/1.5/
    CO2/2.0/
    LOW/2.76E25 -3.2E0 0.0E0/
    TROE/5.7E-1 1.0E30 1.0E-30/
2HO2=H2O2+O2    1.03E14 0.0 1.104207E4
    DUP
2HO2=H2O2+O2    1.94E11 0.0 -1.40894E3
    DUP
H2O2+H=HO2+H2    2.3E13 0.0 7.95005E3
H2O2+H=H2O+OH    1.0E13 0.0 3.58509E3
H2O2+OH=H2O+HO2    1.74E12 0.0 1.43403E3
    DUP
H2O2+OH=H2O+HO2    7.59E13 0.0 7.27294E3
    DUP
H2O2+O=HO2+OH    9.63E6 2.0 3.9914E3
CO+O(+M)=CO2(+M)    1.8E11 0.0 2.38408E3
    AR/0.7/
    HE/0.7/
    H2/2.5/
    H2O/12.0/
    CO/2.0/
    CO2/4.0/
    LOW/1.55E24 -2.79E0 4.19097E3/
    TROE/1.0E0 1.0E0 1.0E7 1.0E7/
CO+OH=CO2+H    4.4E6 1.5 -7.4092E2
CO+HO2=CO2+OH    2.0E13 0.0 2.294455E4
CO+O2=CO2+O    1.0E12 0.0 4.770005E4
HCO+M=CO+H+M    1.86E17 -1.0 1.700048E4
    H2/1.9/
    H2O/12.0/
    CO/2.5/
    CO2/2.5/