! **********************************************************
! Heptane chemistry with NO formation.
! The mechanism is a combination of the San Diego mechanisms
! including:
!   1. The complete San Diego Mehcanism of C1-C4 species
!   2. The Nitrogen Chemistry
!   3. The Heptane Chemistry
! Mehcanism combination is done by Chemkin.
! The final mechanism has 75 species and 344 reactions
! Reference:
!   "Chemical-Kinetic Mechanisms for Combustion Applications", 
!   San Diego Mechanism web page, Mechanical and Aerospace 
!   Engineering (Combustion Research), University of California
!   at San Diego (http://combustion.ucsd.edu).

ELEMENTS
N AR HE H O C 
END

SPECIES
N2 AR HE H O2 
OH O H2 H2O HO2 
H2O2 CO CO2 HCO CH3 
CH4 CH2O T-CH2 S-CH2 C2H4 
CH3O C2H5 C2H6 CH C2H2 
C2H4OOH OC2H3OOH C2H3 CH2CHO C2H4O 
HCCO CH2CO C2H CH2OH CH3OH 
CH3CHO CH3CO C2H5OH CH2CH2OH CH3CHOH 
CH3CH2O C3H4 C3H3 C3H5 C3H6 
C3H8 I-C3H7 N-C3H7 C3H6OOH OC3H5OOH 
C4H10 PC4H9 SC4H9 C4H8 SC4H9O2 
C4H8OOH1-3 NC4KET13 CHCHO NO N2O 
NO2 NH3 HNO N N2H 
NH2 NH H2NO C4H6 C5H10 
C7H16 NC7H15 C7H14 NC7-QOOH NC7-OQOOH 
END

REACTIONS MOLES CAL/MOLE
H+O2=OH+O    3.52E16 -0.7 1.706979E4
H2+O=OH+H    5.06E4 2.67 6.29063E3
H2+OH=H2O+H    1.17E9 1.3 3.63528E3
H2O+O=2OH    7.0E5 2.33 1.454828E4
2H+M=H2+M    1.3E18 -1.0 0.0E0
    AR/0.5/
    HE/0.5/
    H2/2.5/
    H2O/12.0/
    CO/1.9/
    CO2/3.8/
H+OH+M=H2O+M    4.0E22 -2.0 0.0E0
    AR/0.38/
    HE/0.38/
    H2/2.5/
    H2O/12.0/
    CO/1.9/
    CO2/3.8/
2O+M=O2+M    6.17E15 -0.5 0.0E0
    AR/0.2/
    HE/0.2/
    H2/2.5/
    H2O/12.0/
    CO/1.9/
    CO2/3.8/
H+O+M=OH+M    4.71E18 -1.0 0.0E0
    AR/0.75/
    HE/0.75/
    H2/2.5/
    H2O/12.0/
    CO/1.9/
    CO2/3.8/
H+O2(+M)=HO2(+M)    4.65E12 0.44 0.0E0
    AR/0.7/
    HE/0.7/
    H2/2.5/
    H2O/16.0/
    CO/1.2/
    CO2/2.4/
    C2H6/1.5/
    LOW/5.75E19 -1.4E0 0.0E0/
    TROE/5.0E-1 1.0E-30 1.0E30/
HO2+H=2OH    7.08E13 0.0 2.9493E2
HO2+H=H2+O2    1.66E13 0.0 8.229E2
HO2+H=H2O+O    3.1E13 0.0 1.72084E3
HO2+O=OH+O2    2.0E13 0.0 0.0E0
HO2+OH=H2O+O2    7.0E12 0.0 -1.09465E3
    DUP
HO2+OH=H2O+O2    4.5E14 0.0 1.092973E4
    DUP
2OH(+M)=H2O2(+M)    9.55E13 -0.27 0.0E0
    AR/0.7/
    HE/0.4/
    H2/2.5/
    H2O/6.0/
    H2O2/6.0/
    CO/1.5/
    CO2/2.0/
    LOW/2.76E25 -3.2E0 0.0E0/
    TROE/5.7E-1 1.0E30 1.0E-30/
2HO2=H2O2+O2    1.03E14 0.0 1.104207E4
    DUP
2HO2=H2O2+O2    1.94E11 0.0 -1.40894E3
    DUP
H2O2+H=HO2+H2    2.3E13 0.0 7.95005E3
H2O2+H=H2O+OH    1.0E13 0.0 3.58509E3
H2O2+OH=H2O+HO2    1.74E12 0.0 1.43403E3
    DUP
H2O2+OH=H2O+HO2    7.59E13 0.0 7.27294E3
    DUP
H2O2+O=HO2+OH    9.63E6 2.0 3.9914E3
CO+O(+M)=CO2(+M)    1.8E11 0.0 2.38408E3
    AR/0.7/
    HE/0.7/
    H2/2.5/
    H2O/12.0/
    CO/2.0/
    CO2/4.0/
    LOW/1.55E24 -2.79E0 4.19097E3/
    TROE/1.0E0 1.0E0 1.0E7 1.0E7/
CO+OH=CO2+H    4.4E6 1.5 -7.4092E2
CO+HO2=CO2+OH    2.0E13 0.0 2.294455E4
CO+O2=CO2+O    1.0E12 0.0 4.770005E4
HCO+M=CO+H+M    1.86E17 -1.0 1.700048E4
    H2/1.9/
    H2O/12.0/
    CO/2.5/
    CO2/2.5/
HCO+H=CO+H2    5.0E13 0.0 0.0E0
HCO+O=CO+OH    3.0E13 0.0 0.0E0
HCO+O=CO2+H    3.0E13 0.0 0.0E0
HCO+OH=CO+H2O    3.0E13 0.0 0.0E0
HCO+O2=CO+HO2    7.58E12 0.0 4.0989E2
HCO+CH3=CO+CH4    5.0E13 0.0 0.0E0
H+HCO(+M)=CH2O(+M)    1.09E12 0.48 -2.6004E2
    AR/0.7/
    H2/2.0/
    H2O/6.0/
    CO/1.5/
    CO2/2.0/
    CH4/2.0/
    C2H6/3.0/
    LOW/1.35E24 -2.57E0 4.2495E2/
    TROE/7.824E-1 2.71E2 2.755E3 6.57E3/
CH2O+H=HCO+H2    5.74E7 1.9 2.74857E3
CH2O+O=HCO+OH    3.5E13 0.0 3.51338E3
CH2O+OH=HCO+H2O    3.9E10 0.89 4.0631E2
CH2O+O2=HCO+HO2    6.0E13 0.0 4.0674E4
CH2O+HO2=HCO+H2O2    4.11E4 2.5 1.021033E4
CH4+H=H2+CH3    1.3E4 3.0 8.03776E3
CH4+OH=H2O+CH3    1.6E7 1.83 2.78203E3
CH4+O=CH3+OH    1.9E9 1.44 8.67591E3
CH4+O2=CH3+HO2    3.98E13 0.0 5.689054E4
CH4+HO2=CH3+H2O2    9.03E12 0.0 2.464149E4
CH3+H=T-CH2+H2    1.8E14 0.0 1.510516E4
CH3+H=S-CH2+H2    1.55E14 0.0 1.347992E4
CH3+OH=S-CH2+H2O    4.0E13 0.0 2.50239E3
CH3+O=CH2O+H    8.43E13 0.0 0.0E0
CH3+T-CH2=C2H4+H    4.22E13 0.0 0.0E0
CH3+HO2=CH3O+OH    5.0E12 0.0 0.0E0
CH3+O2=CH2O+OH    3.3E11 0.0 8.9412E3
CH3+O2=CH3O+O    1.1E13 0.0 2.782003E4
2CH3=C2H4+H2    1.0E14 0.0 3.200287E4
2CH3=C2H5+H    3.16E13 0.0 1.469885E4
H+CH3(+M)=CH4(+M)    1.351E14 0.091 8.7721E1
    AR/0.7/
    H2/2.0/
    H2O/16.0/
    CO/1.5/
    CO2/2.0/
    CH4/4.0/
    LOW/1.59E33 -4.761E0 2.43229E3/
    TROE/8.34E-1 3.68E1 7.78E2 2.4643E3/
2CH3(+M)=C2H6(+M)    1.81E13 0.0 0.0E0
    AR/0.7/
    H2/2.0/
    H2O/6.0/
    CO/1.5/
    CO2/2.0/
    CH4/2.0/
    C2H6/3.0/
    LOW/1.27E41 -7.0E0 2.76291E3/
    TROE/6.2E-1 7.3E1 1.2E3/
S-CH2+OH=CH2O+H    3.0E13 0.0 0.0E0
S-CH2+O2=CO+OH+H    3.13E13 0.0 0.0E0
S-CH2+CO2=CO+CH2O    3.0E12 0.0 0.0E0
S-CH2+M=T-CH2+M    6.0E12 0.0 0.0E0
    H2/2.4/
    H2O/15.4/
    CO/1.8/
    CO2/3.6/
T-CH2+H=CH+H2    6.02E12 0.0 -1.78776E3
T-CH2+OH=CH2O+H    2.5E13 0.0 0.0E0
T-CH2+OH=CH+H2O    1.13E7 2.0 2.99952E3
T-CH2+O=CO+2H    8.0E13 0.0 0.0E0
T-CH2+O=CO+H2    4.0E13 0.0 0.0E0
T-CH2+O2=CO2+H2    2.63E12 0.0 1.4914E3
T-CH2+O2=CO+OH+H    6.58E12 0.0 1.4914E3
2T-CH2=C2H2+2H    1.0E14 0.0 0.0E0
C2H2+HO2=CHCHO+OH    1.6E8 1.36 1.542E4
CHCHO+O2=CH2O+CO+O    1.3E6 2.4202 1.604E3
CH+O=CO+H    4.0E13 0.0 0.0E0
CH+O2=HCO+O    1.77E11 0.76 -4.7801E2
CH+H2O=CH2O+H    1.17E15 -0.75 0.0E0
CH+CO2=HCO+CO    4.8E1 3.22 -3.22658E3
CH3O+H=CH2O+H2    2.0E13 0.0 0.0E0
CH3O+H=S-CH2+H2O    1.6E13 0.0 0.0E0
CH3O+OH=CH2O+H2O    5.0E12 0.0 0.0E0
CH3O+O=OH+CH2O    1.0E13 0.0 0.0E0
CH3O+O2=CH2O+HO2    4.28E-13 7.6 -3.53728E3
CH3O+M=CH2O+H+M    7.78E13 0.0 1.351338E4
    AR/0.7/
    H2/2.0/
    H2O/6.0/
    CO/1.5/
    CO2/2.0/
    CH4/2.0/
C2H6+H=C2H5+H2    5.4E2 3.5 5.21033E3
C2H6+O=C2H5+OH    1.4E0 4.3 2.77247E3
C2H6+OH=C2H5+H2O    2.2E7 1.9 1.12333E3
C2H6+CH3=C2H5+CH4    5.5E-1 4.0 8.2935E3
C2H6(+M)=C2H5+H(+M)    8.85E20 -1.23 1.0222275E5
    AR/0.7/
    H2/2.0/
    H2O/6.0/
    CO/1.5/
    CO2/2.0/
    CH4/2.0/
    C2H6/3.0/
    LOW/4.9E42 -6.43E0 1.0716993E5/
    TROE/8.4E-1 1.25E2 2.219E3 6.882E3/
C2H6+HO2=C2H5+H2O2    1.32E13 0.0 2.046989E4
C2H5+H=C2H4+H2    3.0E13 0.0 0.0E0
C2H5+O=C2H4+OH    3.06E13 0.0 0.0E0
C2H5+O=CH3+CH2O    4.24E13 0.0 0.0E0
C2H5+O2=C2H4+HO2    7.5E14 -1.0 4.79995E3
C2H5+O2=C2H4OOH    2.0E12 0.0 0.0E0
C2H4OOH=C2H4+HO2    4.0E34 -7.2 2.3E4
C2H4OOH+O2=OC2H3OOH+OH    7.5E5 1.3 -5.79995E3
OC2H3OOH=CH2O+HCO+OH    1.0E15 0.0 4.3E4
C2H5(+M)=C2H4+H(+M)    1.11E10 1.037 3.676864E4
    AR/0.7/
    H2/2.0/
    H2O/6.0/
    CO/1.5/
    CO2/2.0/
    CH4/2.0/
    LOW/3.99E33 -4.99E0 4.0E4/
    TROE/1.68E-1 1.2E3 1.0E-30/
C2H4+H=C2H3+H2    4.49E7 2.12 1.336042E4
C2H4+OH=C2H3+H2O    5.53E5 2.31 2.96367E3
C2H4+O=CH3+HCO    2.25E6 2.08 0.0E0
C2H4+O=CH2CHO+H    1.21E6 2.08 0.0E0
2C2H4=C2H3+C2H5    5.01E14 0.0 6.470005E4
C2H4+O2=C2H3+HO2    4.22E13 0.0 5.762309E4
C2H4+HO2=C2H4O+OH    2.23E12 0.0 1.718929E4
C2H4O+HO2=CH3+CO+H2O2    4.0E12 0.0 1.700765E4
C2H4+M=C2H3+H+M    2.6E17 0.0 9.656812E4
    AR/0.7/
    H2/2.0/
    H2O/6.0/
    CO/1.5/
    CO2/2.0/
    CH4/2.0/
C2H4+M=C2H2+H2+M    3.5E16 0.0 7.153203E4
    AR/0.7/
    H2/2.0/
    H2O/6.0/
    CO/1.5/
    CO2/2.0/
    CH4/2.0/
C2H3+H=C2H2+H2    4.0E13 0.0 0.0E0
C2H3(+M)=C2H2+H(+M)    6.38E9 1.0 3.762667E4
    AR/0.7/
    H2/2.0/
    H2O/6.0/
    CO/1.5/
    CO2/2.0/
    CH4/2.0/
    LOW/1.51E14 1.0E-1 3.268595E4/
    TROE/3.0E-1 1.0E30 1.0E-30/
C2H3+O2=CH2O+HCO    1.7E29 -5.312 6.50311E3
C2H3+O2=CH2CHO+O    7.0E14 -0.611 5.26243E3
C2H3+O2=C2H2+HO2    5.19E15 -1.26 3.31262E3
C2H2+O=HCCO+H    4.0E14 0.0 1.065966E4
C2H2+O=T-CH2+CO    1.6E14 0.0 9.89484E3
C2H2+O2=CH2O+CO    4.6E15 -0.54 4.493308E4
C2H2+OH=CH2CO+H    1.9E7 1.7 9.9904E2
C2H2+OH=C2H+H2O    3.37E7 2.0 1.400096E4
CH2CO+H=CH3+CO    1.5E9 1.43 2.68881E3
CH2CO+O=T-CH2+CO2    2.0E13 0.0 2.29446E3
CH2CO+O=HCCO+OH    1.0E13 0.0 2.00048E3
CH2CO+CH3=C2H5+CO    9.0E10 0.0 0.0E0
HCCO+H=S-CH2+CO    1.5E14 0.0 0.0E0
HCCO+OH=HCO+CO+H    2.0E12 0.0 0.0E0
HCCO+O=2CO+H    9.64E13 0.0 0.0E0
HCCO+O2=2CO+OH    2.88E7 1.7 1.00143E3
HCCO+O2=CO2+CO+H    1.4E7 1.7 1.00143E3
C2H+OH=HCCO+H    2.0E13 0.0 0.0E0
C2H+O=CO+CH    1.02E13 0.0 0.0E0
C2H+O2=HCCO+O    6.02E11 0.0 0.0E0
C2H+O2=CH+CO2    4.5E15 0.0 2.50956E4
C2H+O2=HCO+CO    2.41E12 0.0 0.0E0
CH2OH+H=CH2O+H2    3.0E13 0.0 0.0E0
CH2OH+H=CH3+OH    2.5E17 -0.93 5.12691E3
CH2OH+OH=CH2O+H2O    2.4E13 0.0 0.0E0
CH2OH+O2=CH2O+HO2    5.0E12 0.0 0.0E0
CH2OH+M=CH2O+H+M    5.0E13 0.0 2.51195E4
    AR/0.7/
    H2/2.0/
    H2O/6.0/
    CO/1.5/
    CO2/2.0/
    CH4/2.0/
CH3O+M=CH2OH+M    1.0E14 0.0 1.912046E4
    AR/0.7/
    H2/2.0/
    H2O/6.0/
    CO/1.5/
    CO2/2.0/
    CH4/2.0/
CH2CO+OH=CH2OH+CO    1.02E13 0.0 0.0E0
CH3OH+OH=CH2OH+H2O    1.44E6 2.0 -8.3891E2
CH3OH+OH=CH3O+H2O    4.4E6 2.0 1.50574E3
CH3OH+H=CH2OH+H2    1.354E3 3.2 3.49068E3
CH3OH+H=CH3O+H2    6.83E1 3.4 7.23996E3
CH3OH+O=CH2OH+OH    3.88E5 2.5 3.08078E3
CH3OH+HO2=CH2OH+H2O2    8.0E13 0.0 1.938337E4
CH3OH+O2=CH2OH+HO2    2.0E13 0.0 4.493308E4
CH3OH(+M)=CH3+OH(+M)    1.9E16 0.0 9.172992E4
    AR/0.7/
    H2/2.0/
    H2O/6.0/
    CO/1.5/
    CO2/2.0/
    CH4/2.0/
    LOW/2.95E44 -7.35E0 9.546009E4/
    TROE/4.14E-1 2.8E2 5.5E3/
CH2CHO=CH2CO+H    1.047E37 -7.189 4.434034E4
CH2CHO+H=CH3+HCO    5.0E13 0.0 0.0E0
CH2CHO+H=CH2CO+H2    2.0E13 0.0 0.0E0
CH2CHO+O=CH2O+HCO    1.0E14 0.0 0.0E0
CH2CHO+OH=CH2CO+H2O    3.0E13 0.0 0.0E0
CH2CHO+O2=CH2O+CO+OH    3.0E10 0.0 0.0E0
CH2CHO+CH3=C2H5+CO+H    4.9E14 -0.5 0.0E0
CH2CHO+HO2=CH2O+HCO+OH    7.0E12 0.0 0.0E0
CH2CHO+HO2=CH3CHO+O2    3.0E12 0.0 0.0E0
CH2CHO=CH3+CO    1.17E43 -9.8 4.379995E4
CH3CHO=CH3+HCO    7.0E15 0.0 8.170005E4
CH3CO(+M)=CH3+CO(+M)    3.0E12 0.0 1.670005E4
    AR/0.7/
    H2/2.0/
    H2O/6.0/
    CO/1.5/
    CO2/2.0/
    CH4/2.0/
    LOW/1.2E15 0.0E0 1.25E4/
    TROE/1.0E0 1.0E0 1.0E7 1.0E7/
CH3CHO+OH=CH3CO+H2O    3.37E12 0.0 -6.1998E2
CH3CHO+OH=CH2CHO+H2O    3.37E11 0.0 -6.1998E2
CH3CHO+O=CH3CO+OH    1.77E18 -1.9 2.97992E3
CH3CHO+O=CH2CHO+OH    3.72E13 -0.2 3.55999E3
CH3CHO+H=CH3CO+H2    4.66E13 -0.3 2.98996E3
CH3CHO+H=CH2CHO+H2    1.85E12 0.4 5.35994E3
CH3CHO+CH3=CH3CO+CH4    3.9E-7 5.8 2.20005E3
CH3CHO+CH3=CH2CHO+CH4    2.45E1 3.1 5.72992E3
CH3CHO+HO2=CH3CO+H2O2    3.6E19 -2.2 1.4E4
CH3CHO+HO2=CH2CHO+H2O2    2.32E11 0.4 1.49001E4
CH3CHO+O2=CH3CO+HO2    1.0E14 0.0 4.220005E4
C2H5OH(+M)=CH3+CH2OH(+M)    5.0E15 0.0 8.2E4
    AR/0.7/
    H2/2.0/
    H2O/6.0/
    CO/1.5/
    CO2/2.0/
    CH4/2.0/
    LOW/3.0E16 0.0E0 5.8E4/
    TROE/5.0E-1 1.0E-30 1.0E30/
C2H5OH(+M)=C2H4+H2O(+M)    8.0E13 0.0 6.5E4
    AR/0.7/
    H2/2.0/
    H2O/6.0/
    CO/1.5/
    CO2/2.0/
    CH4/2.0/
    LOW/1.0E17 0.0E0 5.4E4/
    TROE/5.0E-1 1.0E-30 1.0E30/
C2H5OH+OH=CH2CH2OH+H2O    1.81E11 0.4 7.1702E2
C2H5OH+OH=CH3CHOH+H2O    3.09E10 0.5 -3.8002E2
C2H5OH+OH=CH3CH2O+H2O    1.05E10 0.8 7.1702E2
C2H5OH+H=CH2CH2OH+H2    1.9E7 1.8 5.0999E3
C2H5OH+H=CH3CHOH+H2    2.58E7 1.6 2.83007E3
C2H5OH+H=CH3CH2O+H2    1.5E7 1.6 3.03991E3
C2H5OH+O=CH2CH2OH+OH    9.41E7 1.7 5.46009E3
C2H5OH+O=CH3CHOH+OH    1.88E7 1.9 1.82003E3
C2H5OH+O=CH3CH2O+OH    1.58E7 2.0 4.45005E3
C2H5OH+CH3=CH2CH2OH+CH4    2.19E2 3.2 9.61998E3
C2H5OH+CH3=CH3CHOH+CH4    7.28E2 3.0 7.95005E3
C2H5OH+CH3=CH3CH2O+CH4    1.45E2 3.0 7.6501E3
C2H5OH+HO2=CH3CHOH+H2O2    8.2E3 2.5 1.079995E4
C2H5OH+HO2=CH2CH2OH+H2O2    2.43E4 2.5 1.579995E4
C2H5OH+HO2=CH3CH2O+H2O2    3.8E12 0.0 2.4E4
C2H4+OH=CH2CH2OH    2.41E11 0.0 -2.38002E3
C2H5+HO2=CH3CH2O+OH    4.0E13 0.0 0.0E0
CH3CH2O+M=CH3CHO+H+M    5.6E34 -5.9 2.529995E4
    AR/0.7/
    H2/2.0/
    H2O/6.0/
    CO/1.5/
    CO2/2.0/
    CH4/2.0/
CH3CH2O+M=CH3+CH2O+M    5.35E37 -7.0 2.379995E4
    AR/0.7/
    H2/2.0/
    H2O/6.0/
    CO/1.5/
    CO2/2.0/
    CH4/2.0/
CH3CH2O+O2=CH3CHO+HO2    4.0E10 0.0 1.0999E3
CH3CH2O+CO=C2H5+CO2    4.68E2 3.2 5.38002E3
CH3CH2O+H=CH3+CH2OH    3.0E13 0.0 0.0E0
CH3CH2O+H=C2H4+H2O    3.0E13 0.0 0.0E0
CH3CH2O+OH=CH3CHO+H2O    1.0E13 0.0 0.0E0
CH3CHOH+O2=CH3CHO+HO2    4.82E13 0.0 5.02008E3
CH3CHOH+O=CH3CHO+OH    1.0E14 0.0 0.0E0
CH3CHOH+H=C2H4+H2O    3.0E13 0.0 0.0E0
CH3CHOH+H=CH3+CH2OH    3.0E13 0.0 0.0E0
CH3CHOH+HO2=CH3CHO+2OH    4.0E13 0.0 0.0E0
CH3CHOH+OH=CH3CHO+H2O    5.0E12 0.0 0.0E0
CH3CHOH+M=CH3CHO+H+M    1.0E14 0.0 2.5E4
    AR/0.7/
    H2/2.0/
    H2O/6.0/
    CO/1.5/
    CO2/2.0/
    CH4/2.0/
C3H4+O=C2H4+CO    2.0E7 1.8 1.0E3
CH3+C2H2=C3H4+H    2.56E9 1.1 1.364388E4
C3H4+O=HCCO+CH3    7.3E12 0.0 2.25E3
C3H3+H(+M)=C3H4(+M)    3.0E13 0.0 0.0E0
    LOW/9.0E15 1.0E0 0.0E0/
    TROE/5.0E-1 1.0E30 1.0E-30/
C3H3+HO2=C3H4+O2    2.5E12 0.0 0.0E0
C3H4+OH=C3H3+H2O    5.3E6 2.0 2.0E3
C3H3+O2=CH2CO+HCO    3.0E10 0.0 2.86807E3
C3H4+H(+M)=C3H5(+M)    4.0E13 0.0 0.0E0
    LOW/3.0E24 -2.0E0 0.0E0/
    TROE/8.0E-1 1.0E30 1.0E-30/
C3H5+H=C3H4+H2    1.8E13 0.0 0.0E0
C3H5+O2=C3H4+HO2    4.99E15 -1.4 2.242806E4
C3H5+CH3=C3H4+CH4    3.0E12 -0.32 -1.3098E2
C2H2+CH3(+M)=C3H5(+M)    6.0E8 0.0 0.0E0
    LOW/2.0E9 1.0E0 0.0E0/
    TROE/5.0E-1 1.0E30 1.0E-30/
C3H5+OH=C3H4+H2O    6.0E12 0.0 0.0E0
C3H3+HCO=C3H4+CO    2.5E13 0.0 0.0E0
C3H3+HO2=OH+CO+C2H3    8.0E11 0.0 0.0E0
C3H4+O2=CH3+HCO+CO    4.0E14 0.0 4.1826E4
C3H6+O=C2H5+HCO    3.5E7 1.65 -9.7275E2
C3H6+OH=C3H5+H2O    3.1E6 2.0 -2.9828E2
C3H6+O=CH2CO+CH3+H    1.2E8 1.65 3.2744E2
C3H6+H=C3H5+H2    1.7E5 2.5 2.49283E3
C3H5+H(+M)=C3H6(+M)    2.0E14 0.0 0.0E0
    AR/0.7/
    H2/2.0/
    H2O/6.0/
    CO/1.5/
    CO2/2.0/
    CH4/2.0/
    C2H6/3.0/
    LOW/1.33E60 -1.2E1 5.96797E3/
    TROE/2.0E-2 1.097E3 1.097E3 6.86E3/
C3H5+HO2=C3H6+O2    2.66E12 0.0 0.0E0
C3H5+HO2=OH+C2H3+CH2O    3.0E12 0.0 0.0E0
C2H3+CH3(+M)=C3H6(+M)    2.5E13 0.0 0.0E0
    AR/0.7/
    H2/2.0/
    H2O/6.0/
    CO/1.5/
    CO2/2.0/
    CH4/2.0/
    C2H6/3.0/
    LOW/4.27E58 -1.194E1 9.77055E3/
    TROE/1.75E-1 1.341E3 6.0E4 1.014E4/
C3H6+H=C2H4+CH3    1.6E22 -2.39 1.118547E4
CH3+C2H3=C3H5+H    1.5E24 -2.83 1.861855E4
C3H8(+M)=CH3+C2H5(+M)    1.1E17 0.0 8.439293E4
    LOW/7.83E18 0.0E0 6.497801E4/
    TROE/7.6E-1 1.9E3 3.8E1/
C3H8+O2=I-C3H7+HO2    4.0E13 0.0 4.75E4
C3H8+O2=N-C3H7+HO2    4.0E13 0.0 5.093212E4
C3H8+H=I-C3H7+H2    1.3E6 2.4 4.47108E3
C3H8+H=N-C3H7+H2    1.33E6 2.54 6.76147E3
C3H8+O=I-C3H7+OH    4.76E4 2.71 2.10731E3
C3H8+O=N-C3H7+OH    1.9E5 2.68 3.71845E3
C3H8+OH=N-C3H7+H2O    1.0E10 1.0 1.5999E3
C3H8+OH=I-C3H7+H2O    2.0E7 -1.6 -9.99E1
C3H8+HO2=I-C3H7+H2O2    9.64E3 2.6 1.39173E4
C3H8+HO2=N-C3H7+H2O2    4.76E4 2.55 1.64914E4
I-C3H7+C3H8=N-C3H7+C3H8    8.4E-3 4.2 8.67591E3
C3H6+H(+M)=I-C3H7(+M)    1.33E13 0.0 1.56071E3
    AR/0.7/
    H2/2.0/
    H2O/6.0/
    CO/1.5/
    CO2/2.0/
    CH4/2.0/
    C2H6/3.0/
    LOW/8.7E42 -7.5E0 4.73231E3/
    TROE/1.0E0 1.0E3 6.454E2 6.844E3/
I-C3H7+O2=C3H6+HO2    1.3E11 0.0 0.0E0
N-C3H7(+M)=CH3+C2H4(+M)    1.23E13 -0.1 3.021033E4
    LOW/5.49E49 -1.0E1 3.577892E4/
    TROE/-1.17E0 2.51E2 1.0E-15 1.185E3/
H+C3H6(+M)=N-C3H7(+M)    1.33E13 0.0 3.26004E3
    AR/0.7/
    H2/2.0/
    H2O/6.0/
    CO/1.5/
    CO2/2.0/
    CH4/2.0/
    C2H6/3.0/
    LOW/6.26E38 -6.66E0 7.00048E3/
    TROE/1.0E0 1.0E3 1.31E3 4.81E4/
N-C3H7+O2=C3H6+HO2    3.5E16 -1.6 3.5E3
N-C3H7+O2=C3H6OOH    2.0E12 0.0 0.0E0
C3H6OOH=C3H6+HO2    2.5E35 -8.3 2.2E4
C3H6OOH+O2=OC3H5OOH+OH    1.5E8 0.0 -7.0E3
OC3H5OOH=CH2CHO+CH2O+OH    1.0E15 0.0 4.3E4
C4H10(+M)=2C2H5(+M)    2.72E15 0.0 7.560994E4
    LOW/4.72E18 0.0E0 4.958007E4/
    TROE/7.2E-1 1.5E3 1.0E-10 1.0E10/
C4H10+O2=PC4H9+HO2    6.0E13 0.0 5.234011E4
C4H10+O2=SC4H9+HO2    4.0E13 0.0 4.979995E4
C4H10+HO2=PC4H9+H2O2    4.08E1 3.59 1.715989E4
C4H10+HO2=SC4H9+H2O2    1.264E2 3.37 1.371989E4
C4H10+O=PC4H9+OH    1.13E14 0.0 7.85E3
C4H10+O=SC4H9+OH    5.62E13 0.0 5.2E3
C4H10+OH=PC4H9+H2O    1.054E10 0.97 1.58604E3
C4H10+OH=SC4H9+H2O    9.34E7 1.61 -3.489E1
C4H10+H=H2+PC4H9    2.8E6 2.54 6.9654E3
C4H10+H=H2+SC4H9    1.69E6 2.4 4.493E3
PC4H9=C2H5+C2H4    3.504E12 0.463 2.946989E4
SC4H9=C3H6+CH3    4.803E10 1.044 3.03499E4
C4H8=C3H5+CH3    1.0E16 0.0 7.289675E4
C4H8+H=H2+C2H3+C2H4    6.6E5 2.54 6.76386E3
SC4H9+O2=SC4H9O2    7.5E12 0.0 0.0E0
SC4H9O2=C4H8+HO2    5.075E42 -9.41 4.149E4
PC4H9+O2=C4H8+HO2    8.37E-1 3.59 1.2E4
PC4H9+O2=C4H8OOH1-3    2.0E12 0.0 0.0E0
C4H8OOH1-3=C4H8+HO2    2.0E12 0.0 2.4E4
C4H8OOH1-3+O2=NC4KET13+OH    3.5E0 2.234 -1.656E4
NC4KET13=N-C3H7+CO2+OH    3.0E16 0.0 4.15E4
!Added from donor mechanism
!******************N**************************************************
!(92MiC/liM)
N2+O=N+NO    1.47E13 0.3 7.528681E4
!Added from donor mechanism
!(Mb89)
N+O2=NO+O    6.4E9 1.0 6.28585E3
!Added from donor mechanism
!(glarbOrg94)
N+OH=NO+H    3.8E13 0.0 0.0E0
!Added from donor mechanism
NH+H=N+H2    1.0E14 0.0 0.0E0
!Added from donor mechanism
! GLA/MIL98 CEC94
NH+O=NO+H    9.2E13 0.0 0.0E0
!Added from donor mechanism
! GLA/MIL98 JAM est
NH+OH=HNO+H    4.0E13 0.0 0.0E0
!Added from donor mechanism
! GLA/MIL98 JAM est
NH+OH=N+H2O    5.0E11 0.5 2.00048E3
!Added from donor mechanism
! GLA/MIL98 MIL/MEL92
NH+O2=HNO+O    4.6E5 2.0 6.50096E3
!Added from donor mechanism
! pw 1.3.12 Klip
NH+NO=N2O+H    1.8E14 -0.351 -2.44E2
!Added from donor mechanism
! GLA/MIL98 MIL/MEL92
NH+NO=N2+OH    2.2E13 -0.23 0.0E0
!Added from donor mechanism
! GLA/MIL98 DAV/HAN90
NH2+H=NH+H2    4.0E13 0.0 3.65201E3
!Added from donor mechanism
! GLA/MIL98 DRA/WAG84,JAM est
NH2+O=HNO+H    6.6E14 -0.5 0.0E0
!Added from donor mechanism
! DB  96 UPDATE
NH2+O2=H2NO+O    2.6E11 0.4872 2.905E4
!Added from donor mechanism
! GLA/MIL98 JAM est
NH2+OH=NH+H2O    4.0E6 2.0 1.00143E3
!Added from donor mechanism
! GLA/MIL98 WHY/PHI83
NH2+N=N2+2H    7.0E13 0.0 0.0E0
!Added from donor mechanism
! MIL/GLA99 MIL/GLA99
NH2+NO=N2+H2O    2.8E20 -2.654 1.258E3
!Added from donor mechanism
NH2+NO=N2H+OH    3.1E13 -0.48 1.18E3
!Added from donor mechanism
! GLA/MIL98 DAV/HAN90
NH3+M=NH2+H+M    2.2E16 0.0 9.345124E4
!Added from donor mechanism
! GLA/MIL98 MIC/SUT86
NH3+H=NH2+H2    6.4E5 2.39 1.018164E4
!Added from donor mechanism
! GLA/MIL98 SUT/KLE90
NH3+O=NH2+OH    9.4E6 1.94 6.46511E3
!Added from donor mechanism
! GLA/MIL98 SAL/HAN84
NH3+OH=NH2+H2O    2.04E6 2.04 5.6644E2
!Added from donor mechanism
! GLA/MIL98 MIL/GLA96
N2H+O2=N2+HO2    2.0E14 0.0 0.0E0
!Added from donor mechanism
! MIL/GLA99 MIL/GLA99
N2H(+M)=N2+H(+M)    6.5E7 0.0 0.0E0
    LOW/5.0E13 0.0E0 0.0E0/
!Added from donor mechanism
! GLA/MIL98 JAM est
N2H+H=N2+H2    1.0E14 0.0 0.0E0
!Added from donor mechanism
! GLA/MIL98 JAM est
N2H+O=N2O+H    1.0E14 0.0 0.0E0
!Added from donor mechanism
! GLA/MIL98 JAM est
N2H+OH=N2+H2O    5.0E13 0.0 0.0E0
!Added from donor mechanism
H+NO(+M)=HNO(+M)    1.5E15 -0.4 0.0E0
    AR/0.5/
    LOW/4.3E14 2.06E-1 -1.55497E3/
!Added from donor mechanism
! (glarbOrg94)
HNO+H=NO+H2    4.4E11 0.72 6.501E2
!Added from donor mechanism
! (Mb89)
HNO+OH=NO+H2O    3.6E13 0.0 0.0E0
!Added from donor mechanism
N2O(+M)=N2+O(+M)    8.0E11 0.0 6.26195E4
    LOW/2.0E14 0.0E0 5.664436E4/
!Added from donor mechanism
! 64 BaulcH
N2O+H=N2+OH    3.31E10 0.0 5.09E3
    DUP
!Added from donor mechanism
! 65 BaulcH
N2O+H=N2+OH    7.83E14 0.0 1.939E4
    DUP
!Added from donor mechanism
! 61 MeagHer J. PHys. cHem. a, 2000, 104(25), p 6003.
N2O+O=2NO    9.15E13 0.0 2.7693E4
!Added from donor mechanism
! Mueller00 IJCK
N2O+OH=N2+HO2    2.0E13 0.0 4.0E4
!Added from donor mechanism
! (Mb89)
NO2+M=NO+O+M    1.1E16 0.0 6.596558E4
    H2O/16.25/
!Added from donor mechanism
! (glarbOrg94  )
NO+HO2=NO2+OH    2.1E12 0.0 -4.804E2
!Added from donor mechanism
! kO/fONtijN
NO2+H=NO+OH    3.5E14 0.0 1.50096E3
!Added from donor mechanism
! Konnov
NO2+O=NO+O2    1.0E13 0.0 5.999E2
!Added from donor mechanism
! GLA/MIL98 JAM est
H2NO+O=HNO+OH    3.0E7 2.0 2.0E3
!Added from donor mechanism
! MIL/GLA99 JAM est
H2NO+O2=HNO+HO2    3.0E12 0.0 2.5E4
!Added from donor mechanism
H2NO+HO2=HNO+H2O2    2.9E4 2.69 -1.6E3
!Added from donor mechanism
!! New n-Heptane SD mech (from previous SD mech) and modifications for low-T ignition
C7H16=CH3+2C2H4+C2H5    1.0E18 0.0 8.532505E4
!Added from donor mechanism
C7H16+O2=HO2+NC7H15    2.045E7 2.0 4.072249E4
!Added from donor mechanism
C7H16+H=H2+NC7H15    2.888E7 2.0 3.95057E3
!Added from donor mechanism
C7H16+OH=H2O+NC7H15    4.793E6 2.0 -2.25983E3
!Added from donor mechanism
C7H16+HO2=H2O2+NC7H15    6.465E5 2.0 1.188773E4
!Added from donor mechanism
NC7H15=CH3+2C3H6    5.61E12 0.0 3.0E4
!Added from donor mechanism
NC7H15=C3H6+C2H5+C2H4    1.419E13 0.0 3.0E4
!Added from donor mechanism
NC7H15=C4H8+N-C3H7    6.6E12 0.0 3.0E4
!Added from donor mechanism
NC7H15=C5H10+C2H5    5.28E12 0.0 3.0E4
!Added from donor mechanism
C5H10=C3H5+C2H5    1.0E16 0.0 7.289675E4
!Added from donor mechanism
C5H10=C3H6+C2H4    3.16E12 0.0 5.712237E4
!Added from donor mechanism
C5H10+OH=H2O+C3H6+C2H3    7.08E7 1.9 1.673E2
!Added from donor mechanism
C5H10+H=H2+C3H6+C2H3    1.3E6 2.4 4.46941E3
!Added from donor mechanism
C5H10+H=2C2H4+CH3    7.23E12 0.0 1.29063E3
!Added from donor mechanism
C5H10+H=C3H6+C2H5    7.23E12 0.0 1.29063E3
!Added from donor mechanism
C5H10+H=H2+C2H4+C3H5    6.6E5 2.54 6.76386E3
!Added from donor mechanism
C5H10+H=H2+C4H6+CH3    1.15E5 2.5 2.48566E3
!Added from donor mechanism
C4H8+H=C2H4+C2H5    7.23E12 0.0 1.29063E3
!Added from donor mechanism
C4H8+H=C3H6+CH3    7.23E12 0.0 1.29063E3
!Added from donor mechanism
C4H8+OH=H2O+C4H6+H    2.08E6 2.0 -2.8681E2
!Added from donor mechanism
C4H6=C2H2+C2H3+H    1.58E16 0.0 1.0999522E5
!Added from donor mechanism
C4H6+H=C2H3+C2H4    5.0E11 0.0 0.0E0
!Added from donor mechanism
C4H6+H=H2+C2H2+C2H3    6.3E10 0.7 6.00143E3
!Added from donor mechanism
C4H6+OH=HCO+H+C3H5    5.0E12 0.0 0.0E0
!Added from donor mechanism
C4H6+CH3=CH4+C2H2+C2H3    7.0E13 0.0 1.8413E4
!Added from donor mechanism
C3H3+CH3=C4H6    5.0E12 0.0 0.0E0
!Added from donor mechanism
2C2H3=C4H6    1.26E13 0.0 0.0E0
!Added from donor mechanism
! n-Heptane low Temperaure ignition reactions:
NC7H15+O2=C7H14+HO2    5.0E11 0.0 3.5E3
!Added from donor mechanism
NC7H15+O2=NC7-QOOH    2.0E12 0.0 0.0E0
!Added from donor mechanism
NC7-QOOH=HO2+C7H14    2.0E12 0.0 2.4E4
!Added from donor mechanism
NC7-QOOH+O2=NC7-OQOOH+OH    3.5E7 0.0 -1.66E4
!Added from donor mechanism
NC7-OQOOH=OH+CH2O+CO+C2H4+N-C3H7    4.0E13 0.0 3.94E4
!Added from donor mechanism
C7H14+OH=CH3CHO+C2H5+C3H6    1.0E13 0.0 0.0E0
END
