"""
NC12H26_Hybrid mechanism 2019-10-17
 author contact: Simon Lapointe
LLNL-MI-794264

NC12H26_Hybrid mechanism thermo 2019-10-17
 author contact: Simon Lapointe
LLNL-MI-794264

"""

units(length='cm', time='s', quantity='mol', act_energy='cal/mol')

ideal_gas(name='gas',
          elements="C H N O Ar He",
          species="""NC12H26       C12H25        KET1          N2
                     H2            H             O2            O
                     H2O           OH            H2O2          HO2
                     CO            CO2           CH4           CH3
                     CH3O2H        CH3O2         CH3OH         CH3O
                     CH2OH         CH2O          HCO           HO2CHO
                     HOCH2O        O2CHO         HOCHO         OCHO
                     C2H6          C2H5          C2H5O2H       C2H5O2
                     C2H4          C2H3          C2H3OO        C2H2
                     C2H5O         PC2H4OH       O2C2H4OH      CH3CHO
                     CH2CHO        O2CH2CHO      HO2CH2CO      CH2CO
                     HCCO          IC3H7         NC3H7         NC3H7O2H
                     NC3H7O2       IC3H7O2       NC3H7O        C3H6OOH1-2
                     C3H6OOH1-3    C3H6OOH1-3O2  C3KET13       C3H6O1-2
                     C3H6          C3H5-A        C3H5O         AC3H5OOH
                     CH3COCH2      CH3COCH2O2    C4H8-1        C4H71-3
                     C4H6""",
          reactions='all',
          initial_state=state(temperature=300.0, pressure=OneAtm))

#-------------------------------------------------------------------------------
# Species data
#-------------------------------------------------------------------------------

species(name='NC12H26',
        atoms='C:12 H:26',
        thermo=(NASA([200.00, 1396.00],
                     [-3.09648947E+00,  1.54500314E-01, -1.09632640E-04,
                       4.34902292E-08, -7.76618751E-12, -4.02963572E+04,
                       5.22480262E+01]),
                NASA([1396.00, 5000.00],
                     [ 3.91821375E+01,  5.63066434E-02, -1.92400364E-05,
                       2.98494991E-09, -1.73089023E-13, -5.52019704E+04,
                      -1.75385163E+02])),
        note='9/15/15THERM')

species(name='C12H25',
        atoms='C:12 H:25',
        thermo=(NASA([300.00, 1363.00],
                     [-3.70492884E+00,  1.46538588E-01, -8.32983763E-05,
                       2.14470899E-08, -2.24469020E-12, -1.81057967E+04,
                       4.99301404E+01]),
                NASA([1363.00, 5000.00],
                     [ 4.50025337E+01,  5.10135375E-02, -1.79237157E-05,
                       2.83438595E-09, -1.66601539E-13, -3.68371627E+04,
                      -2.18221125E+02])),
        note='11/2/16')

species(name='KET1',
        atoms='C:12 H:24 O:3',
        thermo=(NASA([300.00, 1393.00],
                     [-4.32181996E+00,  1.83235924E-01, -1.50205972E-04,
                       6.69613339E-08, -1.27967059E-11, -6.05514952E+04,
                       6.56500650E+01]),
                NASA([1393.00, 5000.00],
                     [ 4.85193615E+01,  5.11110608E-02, -1.76838488E-05,
                       2.76716278E-09, -1.61441610E-13, -7.81993648E+04,
                      -2.15458985E+02])),
        note='9/13/15THERM')

species(name='N2',
        atoms='N:2',
        thermo=(NASA([200.00, 1000.00],
                     [ 3.58256851E+00, -5.58781407E-04,  7.83391479E-07,
                       8.73631719E-10, -7.49971666E-13, -1.05160018E+03,
                       2.75873431E+00]),
                NASA([1000.00, 6000.00],
                     [ 2.95257637E+00,  1.39690040E-03, -4.92631603E-07,
                       7.86010195E-11, -4.60755204E-15, -9.24423063E+02,
                       5.87156477E+00])),
        note='G8/02')

species(name='H2',
        atoms='H:2',
        thermo=(NASA([200.00, 1000.00],
                     [ 2.68763434E+00,  5.08352924E-03, -1.09134795E-05,
                       9.75972638E-09, -2.98961778E-12, -9.48720664E+02,
                      -7.06735279E-01]),
                NASA([1000.00, 6000.00],
                     [ 2.93286575E+00,  8.26608026E-04, -1.46402364E-07,
                       1.54100414E-11, -6.88804800E-16, -8.16223900E+02,
                      -1.02647801E+00])),
        note='TPIS78')

species(name='H',
        atoms='H:1',
        thermo=(NASA([200.00, 1000.00],
                     [ 2.50000000E+00, -1.21434192E-16,  3.14642268E-19,
                      -3.30872200E-22,  1.21191563E-25,  2.54736600E+04,
                      -4.46682850E-01]),
                NASA([1000.00, 6000.00],
                     [ 2.50000000E+00,  0.00000000E+00,  0.00000000E+00,
                       0.00000000E+00,  0.00000000E+00,  2.54736600E+04,
                      -4.46682850E-01])),
        note='L6/94')

species(name='O2',
        atoms='O:2',
        thermo=(NASA([200.00, 1000.00],
                     [ 3.66627111E+00, -2.01629566E-03,  6.94873168E-06,
                      -6.16244023E-09,  1.75919060E-12, -1.05352472E+03,
                       4.12801194E+00]),
                NASA([1000.00, 6000.00],
                     [ 3.66096065E+00,  6.56365811E-04, -1.41149627E-07,
                       2.05797935E-11, -1.29913436E-15, -1.21490829E+03,
                       3.41609021E+00])),
        note='RUS89')

species(name='O',
        atoms='O:1',
        thermo=(NASA([200.00, 1000.00],
                     [ 3.11201699E+00, -2.80464778E-03,  5.23974549E-06,
                      -4.42444222E-09,  1.39393321E-12,  2.91273034E+04,
                       2.27964278E+00]),
                NASA([1000.00, 6000.00],
                     [ 2.54363697E+00, -2.73162486E-05, -4.19029520E-09,
                       4.95481845E-12, -4.79553694E-16,  2.92265295E+04,
                       4.92264671E+00])),
        note='L1/90')

species(name='H2O',
        atoms='H:2 O:1',
        thermo=(NASA([200.00, 1000.00],
                     [ 4.23584018E+00, -2.35035878E-03,  7.44852451E-06,
                      -6.61473728E-09,  2.24734749E-12, -3.02970623E+04,
                      -9.99620648E-01]),
                NASA([1000.00, 6000.00],
                     [ 2.67703890E+00,  2.97318160E-03, -7.73768890E-07,
                       9.44335140E-11, -4.26899910E-15, -2.98862362E+04,
                       6.88231731E+00])),
        note='L5/89')

species(name='OH',
        atoms='H:1 O:1',
        thermo=(NASA([200.00, 1000.00],
                     [ 3.98520224E+00, -2.34383614E-03,  4.44744427E-06,
                      -3.67375964E-09,  1.27653925E-12,  3.36950653E+03,
                      -7.65438871E-02]),
                NASA([1000.00, 6000.00],
                     [ 2.83853033E+00,  1.10741289E-03, -2.94000209E-07,
                       4.20698729E-11, -2.42289890E-15,  3.69787047E+03,
                       5.84498899E+00])),
        note='IU3/03')

species(name='H2O2',
        atoms='H:2 O:2',
        thermo=(NASA([200.00, 1000.00],
                     [ 3.87148687E+00,  2.89650863E-03,  6.57196077E-06,
                      -9.23920581E-09,  3.42064984E-12, -1.76669584E+04,
                       5.06975745E+00]),
                NASA([1000.00, 6000.00],
                     [ 4.57977305E+00,  4.05326003E-03, -1.29844730E-06,
                       1.98211400E-10, -1.13968792E-14, -1.80030958E+04,
                       6.67748430E-01])),
        note='T8/03')

species(name='HO2',
        atoms='H:1 O:2',
        thermo=(NASA([200.00, 1000.00],
                     [ 3.91532945E+00, -1.48787475E-03,  1.15167354E-05,
                      -1.25715747E-08,  4.35421300E-12,  2.98674804E+02,
                       5.28114803E+00]),
                NASA([1000.00, 5000.00],
                     [ 4.17228741E+00,  1.88117627E-03, -3.46277286E-07,
                       1.94657549E-11,  1.76256905E-16,  3.45761323E+01,
                       2.96009637E+00])),
        note='T1/09')

species(name='CO',
        atoms='C:1 O:1',
        thermo=(NASA([200.00, 1000.00],
                     [ 3.62131907E+00, -9.62964586E-04,  2.05927408E-06,
                      -3.58537238E-10, -3.70515809E-13, -1.43478331E+04,
                       3.33925475E+00]),
                NASA([1000.00, 6000.00],
                     [ 3.04848590E+00,  1.35172810E-03, -4.85794050E-07,
                       7.88536440E-11, -4.69807460E-15, -1.42665015E+04,
                       6.01683607E+00])),
        note='RUS79')

species(name='CO2',
        atoms='C:1 O:2',
        thermo=(NASA([200.00, 1000.00],
                     [ 2.15396601E+00,  1.06958703E-02, -1.21826556E-05,
                       8.60084283E-09, -2.73472847E-12, -4.83537808E+04,
                       1.07220601E+01]),
                NASA([1000.00, 6000.00],
                     [ 4.63651110E+00,  2.74145690E-03, -9.95897590E-07,
                       1.60386660E-10, -9.16198570E-15, -4.90230378E+04,
                      -1.93362571E+00])),
        note='L7/88')

species(name='CH4',
        atoms='C:1 H:4',
        thermo=(NASA([200.00, 1000.00],
                     [ 4.49328777E+00, -8.12795329E-03,  3.27839311E-05,
                      -2.85619163E-08,  8.28062397E-12, -1.01877875E+04,
                      -1.98359778E+00]),
                NASA([1000.00, 6000.00],
                     [ 1.65326226E+00,  1.00263099E-02, -3.31661238E-06,
                       5.36483138E-10, -3.14696758E-14, -1.00035602E+04,
                       9.90916890E+00])),
        note='G8/99')

species(name='CH3',
        atoms='C:1 H:3',
        thermo=(NASA([200.00, 1000.00],
                     [ 3.44917812E+00,  3.88183562E-03,  2.69200448E-07,
                      -3.18443953E-10, -1.91997156E-13,  1.64413684E+04,
                       2.51555856E+00]),
                NASA([1000.00, 6000.00],
                     [ 2.97812060E+00,  5.79785200E-03, -1.97558000E-06,
                       3.07297900E-10, -1.79174160E-14,  1.65114265E+04,
                       4.72378195E+00])),
        note='IU0702')

species(name='CH3O2H',
        atoms='C:1 H:4 O:2',
        thermo=(NASA([200.00, 1000.00],
                     [ 1.72602235E+00,  2.74518213E-02, -2.41407045E-05,
                       1.04368688E-08, -1.63259546E-12, -1.67837025E+04,
                       1.61485415E+01]),
                NASA([1000.00, 6000.00],
                     [ 7.76538058E+00,  8.61499712E-03, -2.98006935E-06,
                       4.68638071E-10, -2.75339255E-14, -1.82871483E+04,
                      -1.43918824E+01])),
        note='A7/05')

species(name='CH3O2',
        atoms='C:1 H:3 O:2',
        thermo=(NASA([300.00, 1374.00],
                     [ 1.90726435E+00,  1.58052587E-02, -7.39044933E-06,
                       1.23814943E-09, -2.55135862E-15,  2.61255833E+02,
                       1.71993836E+01]),
                NASA([1374.00, 5000.00],
                     [ 6.47970487E+00,  7.44401080E-03, -2.52348555E-06,
                       3.89577296E-10, -2.25182399E-14, -1.56133492E+03,
                      -8.19295174E+00])))

species(name='CH3OH',
        atoms='C:1 H:4 O:1',
        thermo=(NASA([200.00, 1000.00],
                     [ 4.43217314E+00, -5.94979638E-03,  3.85993546E-05,
                      -3.86957167E-08,  1.23734319E-11, -2.55020026E+04,
                       4.06707634E+00]),
                NASA([1000.00, 6000.00],
                     [ 3.52726795E+00,  1.03178783E-02, -3.62892944E-06,
                       5.77448016E-10, -3.42182632E-14, -2.59916012E+04,
                       5.17526490E+00])),
        note='T06/02')

species(name='CH3O',
        atoms='C:1 H:3 O:1',
        thermo=(NASA([200.00, 1000.00],
                     [ 2.56153211E+00,  6.90203635E-03,  8.95828011E-06,
                      -1.24693670E-08,  3.96142058E-12,  1.39884757E+03,
                       1.12288946E+01]),
                NASA([1000.00, 6000.00],
                     [ 4.75779238E+00,  7.44142474E-03, -2.69705176E-06,
                       4.38090504E-10, -2.63537098E-14,  3.88694211E+02,
                      -1.95959861E+00])),
        note='IU1/03')

species(name='CH2OH',
        atoms='C:1 H:3 O:1',
        thermo=(NASA([200.00, 1000.00],
                     [ 3.69487483E+00,  5.26066142E-03,  8.30264501E-06,
                      -1.27583020E-08,  4.78009807E-12, -3.43047185E+03,
                       6.48074021E+00]),
                NASA([1000.00, 6000.00],
                     [ 5.09314370E+00,  5.94761260E-03, -2.06497460E-06,
                       3.23008173E-10, -1.88125902E-14, -4.02688853E+03,
                      -1.84200937E+00])),
        note='IU2/03')

species(name='CH2O',
        atoms='C:1 H:2 O:1',
        thermo=(NASA([200.00, 1000.00],
                     [ 4.23285876E+00, -5.17543471E-03,  2.33296484E-05,
                      -2.09418559E-08,  6.01091278E-12, -1.43289002E+04,
                       2.87326534E+00]),
                NASA([1000.00, 6000.00],
                     [ 3.16952665E+00,  6.19320560E-03, -2.25056366E-06,
                       3.65975660E-10, -2.20149458E-14, -1.45435232E+04,
                       6.04559045E+00])),
        note='T5/11')

species(name='HCO',
        atoms='C:1 H:1 O:1',
        thermo=(NASA([200.00, 1000.00],
                     [ 3.97852038E+00, -1.13494331E-03,  7.54089524E-06,
                      -5.57899303E-09,  1.06450318E-12,  3.89563981E+03,
                       4.35692562E+00]),
                NASA([1000.00, 6000.00],
                     [ 3.92001542E+00,  2.52279324E-03, -6.71004164E-07,
                       1.05615948E-10, -7.43798261E-15,  3.65581228E+03,
                       3.58239231E+00])),
        note='T5/03')

species(name='HO2CHO',
        atoms='C:1 H:2 O:3',
        thermo=(NASA([300.00, 1378.00],
                     [ 2.30993845E+00,  2.27520996E-02, -1.86301166E-05,
                       7.84096336E-09, -1.40195372E-12, -3.54706885E+04,
                       1.79885254E+01]),
                NASA([1378.00, 5000.00],
                     [ 9.87503878E+00,  4.64663708E-03, -1.67230522E-06,
                       2.68624413E-10, -1.59595232E-14, -3.80475829E+04,
                      -2.24907293E+01])),
        note='6/26/95THERM')

species(name='HOCH2O',
        atoms='C:1 H:3 O:2',
        thermo=(NASA([300.00, 1452.00],
                     [ 4.15891721E+00,  7.22428485E-03,  4.45927688E-06,
                      -5.98235580E-09,  1.63258699E-12, -2.28073401E+04,
                       7.26790311E+00]),
                NASA([1452.00, 5000.00],
                     [ 6.39521515E+00,  7.43673043E-03, -2.50422354E-06,
                       3.84879712E-10, -2.21778689E-14, -2.41122190E+04,
                      -6.64020204E+00])),
        note='2/16/99THERM')

species(name='O2CHO',
        atoms='C:1 H:1 O:3',
        thermo=(NASA([300.00, 1368.00],
                     [ 3.84093331E+00,  1.14177741E-02, -7.10584404E-06,
                       2.69099769E-09, -5.49614938E-13, -1.73473277E+04,
                       1.22871806E+01]),
                NASA([1368.00, 5000.00],
                     [ 7.24075139E+00,  4.63312951E-03, -1.63693995E-06,
                       2.59706693E-10, -1.52964699E-14, -1.87000559E+04,
                      -6.49222543E+00])),
        note='6/26/95THERM')

species(name='HOCHO',
        atoms='C:1 H:2 O:2',
        thermo=(NASA([200.00, 1000.00],
                     [ 3.03028060E+00,  3.76659171E-03,  1.38637935E-05,
                      -1.75587387E-08,  6.01600257E-12, -4.66927644E+04,
                       1.08636683E+01]),
                NASA([1000.00, 6000.00],
                     [ 4.61383160E+00,  6.44963640E-03, -2.29082510E-06,
                       3.67160470E-10, -2.18736750E-14, -4.75068644E+04,
                       8.53319436E-01])),
        note='L8/88')

species(name='OCHO',
        atoms='C:1 H:1 O:2',
        thermo=(NASA([200.00, 1000.00],
                     [ 4.21040278E+00, -1.16288943E-04,  1.35851190E-05,
                      -1.39747506E-08,  4.33652555E-12, -1.69438526E+04,
                       6.21870292E+00]),
                NASA([1000.00, 6000.00],
                     [ 4.14394211E+00,  5.59738818E-03, -1.99794019E-06,
                       3.16179193E-10, -1.85614483E-14, -1.72415925E+04,
                       5.08077794E+00])),
        note='ATCT/A')

species(name='C2H6',
        atoms='C:2 H:6',
        thermo=(NASA([200.00, 1000.00],
                     [ 2.83640019E+00,  6.77679960E-03,  2.36441115E-05,
                      -2.67788887E-08,  8.27723666E-12, -1.13917271E+04,
                       8.55696249E+00]),
                NASA([1000.00, 6000.00],
                     [ 4.04666411E+00,  1.53538802E-02, -5.47039485E-06,
                       8.77826544E-10, -5.23167531E-14, -1.24339640E+04,
                      -9.59588642E-01])),
        note='G8/88')

species(name='C2H5',
        atoms='C:2 H:5',
        thermo=(NASA([300.00, 1387.00],
                     [ 1.24876031E+00,  1.81993978E-02, -7.34650881E-06,
                       7.72316112E-10,  1.08200691E-13,  1.34367100E+04,
                       1.75116749E+01]),
                NASA([1387.00, 5000.00],
                     [ 5.88784390E+00,  1.03076793E-02, -3.46844396E-06,
                       5.32499257E-10, -3.06512651E-14,  1.15084173E+04,
                      -8.49429323E+00])),
        note='8/4/4THERM')

species(name='C2H5O2H',
        atoms='C:2 H:6 O:2',
        thermo=(NASA([300.00, 1390.00],
                     [ 1.52942547E+00,  3.58974127E-02, -2.84417031E-05,
                       1.35155257E-08, -2.86927085E-12, -2.15488001E+04,
                       1.94033965E+01]),
                NASA([1390.00, 5000.00],
                     [ 1.04823538E+01,  1.34779879E-02, -4.62179078E-06,
                       7.18618519E-10, -4.17307436E-14, -2.46504304E+04,
                      -2.84206369E+01])),
        note='9/1/12')

species(name='C2H5O2',
        atoms='C:2 H:5 O:2',
        thermo=(NASA([300.00, 1389.00],
                     [ 3.74853947E+00,  2.33123842E-02, -1.25195868E-05,
                       3.82927941E-09, -6.30432166E-13, -5.08014193E+03,
                       9.64390079E+00]),
                NASA([1389.00, 5000.00],
                     [ 9.50282570E+00,  1.20429839E-02, -4.09491581E-06,
                       6.33049241E-10, -3.66133788E-14, -7.36697582E+03,
                      -2.21672929E+01])),
        note='9/1/12')

species(name='C2H4',
        atoms='C:2 H:4',
        thermo=(NASA([300.00, 1392.00],
                     [ 3.41439450E-01,  1.93256213E-02, -1.21179397E-05,
                       4.62942815E-09, -8.84146633E-13,  5.45865401E+03,
                       1.91786446E+01]),
                NASA([1392.00, 5000.00],
                     [ 5.07061289E+00,  9.11140768E-03, -3.10506692E-06,
                       4.80733851E-10, -2.78321396E-14,  3.66727962E+03,
                      -6.64101172E+00])),
        note='8/12/15')

species(name='C2H3',
        atoms='C:2 H:3',
        thermo=(NASA([300.00, 1400.00],
                     [ 1.13603809E+00,  1.65566204E-02, -1.30253774E-05,
                       6.11539589E-09, -1.26556273E-12,  3.47562185E+04,
                       1.74726687E+01]),
                NASA([1400.00, 5000.00],
                     [ 4.99675415E+00,  6.55838271E-03, -2.20921909E-06,
                       3.39300272E-10, -1.95316926E-14,  3.34633809E+04,
                      -3.01102528E+00])),
        note='8/12/15')

species(name='C2H3OO',
        atoms='C:2 H:3 O:2',
        thermo=(NASA([298.15, 1000.00],
                     [ 1.09784812E+00,  2.95333210E-02, -2.27744289E-05,
                       7.20558397E-09, -3.07926292E-13,  1.13996101E+04,
                       2.13563568E+01]),
                NASA([1000.00, 2000.00],
                     [ 6.04483828E+00,  1.45511127E-02, -7.50974622E-06,
                       1.83488280E-09, -1.66689681E-13,  1.01699245E+04,
                      -3.71144908E+00])))

species(name='C2H2',
        atoms='C:2 H:2',
        thermo=(NASA([200.00, 1000.00],
                     [ 7.98636669E-01,  2.34463250E-02, -3.57677749E-05,
                       2.83194645E-08, -8.62907464E-12,  2.64298814E+04,
                       1.39803318E+01]),
                NASA([1000.00, 6000.00],
                     [ 4.65878489E+00,  4.88396667E-03, -1.60828888E-06,
                       2.46974544E-10, -1.38605959E-14,  2.57594967E+04,
                      -3.99831901E+00])),
        note='G1/91')

species(name='C2H5O',
        atoms='C:2 H:5 O:1',
        thermo=(NASA([300.00, 1467.00],
                     [ 2.93439377E+00,  1.75205634E-02, -2.25123781E-06,
                      -3.84142626E-09,  1.36493595E-12, -3.29261453E+03,
                       1.12232787E+01]),
                NASA([1467.00, 5000.00],
                     [ 8.19120635E+00,  1.10391986E-02, -3.75270536E-06,
                       5.80275784E-10, -3.35735146E-14, -5.66937970E+03,
                      -1.90141798E+01])),
        note='8/12/15')

species(name='PC2H4OH',
        atoms='C:2 H:5 O:1',
        thermo=(NASA([300.00, 1395.00],
                     [ 2.42846151E+00,  2.38378206E-02, -1.64685715E-05,
                       6.95214522E-09, -1.37977191E-12, -4.89725003E+03,
                       1.50290869E+01]),
                NASA([1395.00, 5000.00],
                     [ 8.06750150E+00,  1.06143554E-02, -3.57999360E-06,
                       5.50363760E-10, -3.17051769E-14, -6.92343691E+03,
                      -1.53785438E+01])),
        note='8/12/15')

species(name='O2C2H4OH',
        atoms='C:2 H:5 O:3',
        thermo=(NASA([300.00, 1506.00],
                     [ 7.10422794E+00,  1.55345421E-02,  3.11186200E-06,
                      -7.81266719E-09,  2.30159674E-12, -2.24593719E+04,
                      -2.02697585E+00]),
                NASA([1506.00, 5000.00],
                     [ 1.27503881E+01,  1.11514325E-02, -3.83473891E-06,
                       5.98155829E-10, -3.48372108E-14, -2.52791766E+04,
                      -3.54341257E+01])),
        note='9/1/12THERM')

species(name='CH3CHO',
        atoms='C:2 H:4 O:1',
        thermo=(NASA([200.00, 1000.00],
                     [ 3.51802534E+00,  7.02949764E-03,  1.73122638E-05,
                      -2.07684045E-08,  6.45221349E-12, -2.14642434E+04,
                       9.00709222E+00]),
                NASA([1000.00, 6000.00],
                     [ 5.40411080E+00,  1.17230590E-02, -4.22631370E-06,
                       6.83724510E-10, -4.09848630E-14, -2.25819763E+04,
                      -3.47320728E+00])),
        note='L8/88')

species(name='CH2CHO',
        atoms='C:2 H:3 O:1',
        thermo=(NASA([200.00, 1000.00],
                     [ 1.82918699E+00,  1.82602566E-02, -7.92052711E-06,
                      -1.77834459E-09,  1.60276510E-12,  2.49555953E+02,
                       1.62745341E+01]),
                NASA([1000.00, 6000.00],
                     [ 6.53928338E+00,  7.80238629E-03, -2.76413612E-06,
                       4.42098906E-10, -2.62954290E-14, -1.17970103E+03,
                      -8.71486691E+00])),
        note='T03/10')

species(name='O2CH2CHO',
        atoms='C:2 H:3 O:3',
        thermo=(NASA([300.00, 1393.00],
                     [-1.66034621E+00,  4.69740972E-02, -4.82066745E-05,
                       2.56978132E-08, -5.48880348E-12, -1.17888380E+04,
                       3.76277028E+01]),
                NASA([1393.00, 5000.00],
                     [ 1.11807543E+01,  9.14479256E-03, -3.15089833E-06,
                       4.91944238E-10, -2.86639180E-14, -1.55701481E+04,
                      -2.87787347E+01])),
        note='BOZ_03')

species(name='HO2CH2CO',
        atoms='C:2 H:3 O:3',
        thermo=(NASA([300.00, 1386.00],
                     [ 2.16260454E+00,  3.61146060E-02, -3.36196749E-05,
                       1.56438497E-08, -2.91854712E-12, -1.18667192E+04,
                       1.94301496E+01]),
                NASA([1386.00, 5000.00],
                     [ 1.04146322E+01,  1.12680116E-02, -5.17494839E-06,
                       1.00333285E-09, -6.68165911E-14, -1.40940440E+04,
                      -2.27876250E+01])),
        note='BOZ_03')

species(name='CH2CO',
        atoms='C:2 H:2 O:1',
        thermo=(NASA([300.00, 1000.00],
                     [ 1.40422455E+00,  2.30605260E-02, -3.05932702E-05,
                       2.38611015E-08, -7.63129521E-12, -7.01424888E+03,
                       1.53020681E+01]),
                NASA([1000.00, 5000.00],
                     [ 5.35869367E+00,  6.95641586E-03, -2.64802637E-06,
                       4.65067592E-10, -3.08641820E-14, -7.90282197E+03,
                      -3.98437845E+00])))

species(name='HCCO',
        atoms='C:2 H:1 O:1',
        thermo=(NASA([200.00, 1000.00],
                     [ 2.00918463E+00,  2.09973252E-02, -3.25662525E-05,
                       2.65089594E-08, -8.42738046E-12,  2.01514479E+04,
                       1.31579992E+01]),
                NASA([1000.00, 6000.00],
                     [ 5.91479333E+00,  3.71408730E-03, -1.30137010E-06,
                       2.06473345E-10, -1.21476759E-14,  1.93584056E+04,
                      -5.50650607E+00])),
        note='T4/09')

species(name='IC3H7',
        atoms='C:3 H:7',
        thermo=(NASA([298.00, 1000.00],
                     [-9.26483282E-01,  4.17999107E-02, -5.00882268E-05,
                       4.63358652E-08, -1.81811433E-11,  9.94229690E+03,
                       2.93838663E+01]),
                NASA([1000.00, 6000.00],
                     [ 6.70775549E+00,  1.74048076E-02, -6.07615926E-06,
                       9.60084351E-10, -5.65656490E-14,  7.55395019E+03,
                      -1.03684017E+01])),
        note='8/12/15')

species(name='NC3H7',
        atoms='C:3 H:7',
        thermo=(NASA([298.00, 1000.00],
                     [-2.22640719E+00,  5.31600042E-02, -7.28941350E-05,
                       6.42958735E-08, -2.31699930E-11,  1.15154998E+04,
                       3.44708604E+01]),
                NASA([1000.00, 6000.00],
                     [ 7.48614243E+00,  1.65769478E-02, -5.74876481E-06,
                       9.04103694E-10, -5.30867231E-14,  8.93724946E+03,
                      -1.42593209E+01])),
        note='8/12/15')

species(name='NC3H7O2H',
        atoms='C:3 H:8 O:2',
        thermo=(NASA([300.00, 1392.00],
                     [ 1.09904269E+00,  4.74265594E-02, -3.30997315E-05,
                       1.29356157E-08, -2.30308078E-12, -2.41254083E+04,
                       2.34303757E+01]),
                NASA([1392.00, 5000.00],
                     [ 1.42246236E+01,  1.74340964E-02, -5.97063522E-06,
                       9.27753851E-10, -5.38585168E-14, -2.88097083E+04,
                      -4.74283466E+01])),
        note='8/12/15')

species(name='NC3H7O2',
        atoms='C:3 H:7 O:2',
        thermo=(NASA([300.00, 1390.00],
                     [ 1.90405165E+00,  4.12244406E-02, -2.72411935E-05,
                       1.00792257E-08, -1.74093024E-12, -7.44262948E+03,
                       2.02150823E+01]),
                NASA([1390.00, 5000.00],
                     [ 1.32753283E+01,  1.61303126E-02, -5.52348308E-06,
                       8.58197168E-10, -4.98172586E-14, -1.15978027E+04,
                      -4.15025867E+01])),
        note='8/12/15')

species(name='IC3H7O2',
        atoms='C:3 H:7 O:2',
        thermo=(NASA([300.00, 1407.00],
                     [ 2.39292937E+00,  4.29095928E-02, -3.21079497E-05,
                       1.34242588E-08, -2.44268279E-12, -9.64972032E+03,
                       1.52884972E+01]),
                NASA([1407.00, 5000.00],
                     [ 1.35268120E+01,  1.54306581E-02, -5.17464218E-06,
                       7.92548669E-10, -4.55415379E-14, -1.33897846E+04,
                      -4.40404249E+01])),
        note='8/12/15')

species(name='NC3H7O',
        atoms='C:3 H:7 O:1',
        thermo=(NASA([300.00, 1386.00],
                     [ 2.47730250E+00,  3.13732165E-02, -1.34929864E-05,
                       1.33820156E-09,  3.14237091E-13, -6.19881577E+03,
                       1.50099745E+01]),
                NASA([1386.00, 5000.00],
                     [ 1.15279177E+01,  1.53775991E-02, -5.23946272E-06,
                       8.11382512E-10, -4.69927603E-14, -9.84868018E+03,
                      -3.54205400E+01])),
        note='8/12/15')

species(name='C3H6OOH1-2',
        atoms='C:3 H:7 O:2',
        thermo=(NASA([300.00, 1387.00],
                     [ 2.69198360E+00,  3.98036292E-02, -2.69937691E-05,
                       9.82786617E-09, -1.56524021E-12, -1.24475885E+03,
                       1.78664756E+01]),
                NASA([1387.00, 5000.00],
                     [ 1.38088686E+01,  1.43845650E-02, -4.74440961E-06,
                       7.19308280E-10, -4.10654123E-14, -5.14007756E+03,
                      -4.20169732E+01])),
        note='9/1/12')

species(name='C3H6OOH1-3',
        atoms='C:3 H:7 O:2',
        thermo=(NASA([300.00, 1401.00],
                     [ 1.54647844E+00,  4.67014358E-02, -3.87192020E-05,
                       1.74894723E-08, -3.30432675E-12,  2.53391749E+02,
                       2.29293101E+01]),
                NASA([1401.00, 5000.00],
                     [ 1.39130757E+01,  1.40218463E-02, -4.55921149E-06,
                       6.84182417E-10, -3.87696213E-14, -3.65164087E+03,
                      -4.21475020E+01])),
        note='9/1/12')

species(name='C3H6OOH1-3O2',
        atoms='C:3 H:7 O:4',
        thermo=(NASA([300.00, 1416.00],
                     [ 5.43972499E+00,  4.77258643E-02, -3.78272637E-05,
                       1.60409765E-08, -2.81518751E-12, -1.85927861E+04,