THERMO ALL
   300.000  1000.000  5000.000
N2                      N   2               G   300.000  5000.000  1000.000    1
 2.92664000e+00 1.48797680e-03-5.68476000e-07 1.00970380e-10-6.75335100e-15    2
-9.22797700e+02 5.98052800e+00 3.29867700e+00 1.40824040e-03-3.96322200e-06    3
 5.64151500e-09-2.44485400e-12-1.02089990e+03 3.95037200e+00                   4
AR                      Ar  1               G   300.000  5000.000  1000.000    1
 2.50000000e+00 0.00000000e+00 0.00000000e+00 0.00000000e+00 0.00000000e+00    2
-7.45375000e+02 4.36600000e+00 2.50000000e+00 0.00000000e+00 0.00000000e+00    3
 0.00000000e+00 0.00000000e+00-7.45375000e+02 4.36600000e+00                   4
HE                      He  1               G   300.000  5000.000  1000.000    1
 2.50000000e+00 0.00000000e+00 0.00000000e+00 0.00000000e+00 0.00000000e+00    2
-7.45375000e+02 9.28723974e-01 2.50000000e+00 0.00000000e+00 0.00000000e+00    3
 0.00000000e+00 0.00000000e+00-7.45375000e+02 9.28723974e-01                   4
H                       H   1               G   300.000  5000.000  1000.000    1
 2.50000001e+00-2.30842973e-11 1.61561948e-14-4.73515235e-18 4.98197357e-22    2
 2.54736599e+04-4.46682914e-01 2.50000000e+00 7.05332819e-13-1.99591964e-15    3
 2.30081632e-18-9.27732332e-22 2.54736599e+04-4.46682853e-01                   4
O2                      O   2               G   300.000  5000.000  1000.000    1
 3.28253784e+00 1.48308754e-03-7.57966669e-07 2.09470555e-10-2.16717794e-14    2
-1.08845772e+03 5.45323129e+00 3.78245636e+00-2.99673416e-03 9.84730201e-06    3
-9.68129509e-09 3.24372837e-12-1.06394356e+03 3.65767573e+00                   4
OH                      H   1O   1          G   300.000  5000.000  1000.000    1
 2.86472886e+00 1.05650448e-03-2.59082758e-07 3.05218674e-11-1.33195876e-15    2
 3.71885774e+03 5.70164073e+00 4.12530561e+00-3.22544939e-03 6.52764691e-06    3
-5.79853643e-09 2.06237379e-12 3.38153812e+03-6.90432960e-01                   4
O                       O   1               G   300.000  5000.000  1000.000    1
 2.56942078e+00-8.59741137e-05 4.19484589e-08-1.00177799e-11 1.22833691e-15    2
 2.92175791e+04 4.78433864e+00 3.16826710e+00-3.27931884e-03 6.64306396e-06    3
-6.12806624e-09 2.11265971e-12 2.91222592e+04 2.05193346e+00                   4
H2                      H   2               G   300.000  5000.000  1000.000    1
 3.33727920e+00-4.94024731e-05 4.99456778e-07-1.79566394e-10 2.00255376e-14    2
-9.50158922e+02-3.20502331e+00 2.34433112e+00 7.98052075e-03-1.94781510e-05    3
 2.01572094e-08-7.37611761e-12-9.17935173e+02 6.83010238e-01                   4
H2O                     H   2O   1          G   300.000  5000.000  1000.000    1
 3.03399249e+00 2.17691804e-03-1.64072518e-07-9.70419870e-11 1.68200992e-14    2
-3.00042971e+04 4.96677010e+00 4.19864056e+00-2.03643410e-03 6.52040211e-06    3
-5.48797062e-09 1.77197817e-12-3.02937267e+04-8.49032208e-01                   4
HO2                     H   1O   2          G   300.000  5000.000  1000.000    1
 4.01721090e+00 2.23982013e-03-6.33658150e-07 1.14246370e-10-1.07908535e-14    2
 1.11856713e+02 3.78510215e+00 4.30179801e+00-4.74912051e-03 2.11582891e-05    3
-2.42763894e-08 9.29225124e-12 2.94808040e+02 3.71666245e+00                   4
H2O2                    H   2O   2          G   300.000  5000.000  1000.000    1
 4.16500285e+00 4.90831694e-03-1.90139225e-06 3.71185986e-10-2.87908305e-14    2
-1.78617877e+04 2.91615662e+00 4.27611269e+00-5.42822417e-04 1.67335701e-05    3
-2.15770813e-08 8.62454363e-12-1.77025821e+04 3.43505074e+00                   4
CO                      C   1O   1          G   300.000  5000.000  1000.000    1
 2.71518561e+00 2.06252743e-03-9.98825771e-07 2.30053008e-10-2.03647716e-14    2
-1.41518724e+04 7.81868772e+00 3.57953347e+00-6.10353680e-04 1.01681433e-06    3
 9.07005884e-10-9.04424499e-13-1.43440860e+04 3.50840928e+00                   4
CO2                     C   1O   2          G   300.000  5000.000  1000.000    1
 3.85746029e+00 4.41437026e-03-2.21481404e-06 5.23490188e-10-4.72084164e-14    2
-4.87591660e+04 2.27163806e+00 2.35677352e+00 8.98459677e-03-7.12356269e-06    3
 2.45919022e-09-1.43699548e-13-4.83719697e+04 9.90105222e+00                   4
HCO                     C   1H   1O   1     G   300.000  5000.000  1000.000    1
 2.77217438e+00 4.95695526e-03-2.48445613e-06 5.89161778e-10-5.33508711e-14    2
 4.01191815e+03 9.79834492e+00 4.22118584e+00-3.24392532e-03 1.37799446e-05    3
-1.33144093e-08 4.33768865e-12 3.83956496e+03 3.39437243e+00                   4
CH3                     C   1H   3          G   300.000  5000.000  1000.000    1
 2.28571772e+00 7.23990037e-03-2.98714348e-06 5.95684644e-10-4.67154394e-14    2
 1.67755843e+04 8.48007179e+00 3.67359040e+00 2.01095175e-03 5.73021856e-06    3
-6.87117425e-09 2.54385734e-12 1.64449988e+04 1.60456433e+00                   4
CH4                     C   1H   4          G   300.000  5000.000  1000.000    1
 7.48514950e-02 1.33909467e-02-5.73285809e-06 1.22292535e-09-1.01815230e-13    2
-9.46834459e+03 1.84373180e+01 5.14987613e+00-1.36709788e-02 4.91800599e-05    3
-4.84743026e-08 1.66693956e-11-1.02466476e+04-4.64130376e+00                   4
CH2O                    C   1H   2O   1     G   300.000  5000.000  1000.000    1
 1.76069008e+00 9.20000082e-03-4.42258813e-06 1.00641212e-09-8.83855640e-14    2
-1.39958323e+04 1.36563230e+01 4.79372315e+00-9.90833369e-03 3.73220008e-05    3
-3.79285261e-08 1.31772652e-11-1.43089567e+04 6.02812900e-01                   4
T-CH2                   C   1H   2          G   300.000  5000.000  1000.000    1
 2.87410113e+00 3.65639292e-03-1.40894597e-06 2.60179549e-10-1.87727567e-14    2
 4.62636040e+04 6.17119324e+00 3.76267867e+00 9.68872143e-04 2.79489841e-06    3
-3.85091153e-09 1.68741719e-12 4.60040401e+04 1.56253185e+00                   4
S-CH2                   C   1H   2          G   300.000  5000.000  1000.000    1
 2.29203842e+00 4.65588637e-03-2.01191947e-06 4.17906000e-10-3.39716365e-14    2
 5.09259997e+04 8.62650169e+00 4.19860411e+00-2.36661419e-03 8.23296220e-06    3
-6.68815981e-09 1.94314737e-12 5.04968163e+04-7.69118967e-01                   4
C2H4                    C   2H   4          G   300.000  5000.000  1000.000    1
 2.03611116e+00 1.46454151e-02-6.71077915e-06 1.47222923e-09-1.25706061e-13    2
 4.93988614e+03 1.03053693e+01 3.95920148e+00-7.57052247e-03 5.70990292e-05    3
-6.91588753e-08 2.69884373e-11 5.08977593e+03 4.09733096e+00                   4
CH3O                    C   1H   3O   1     G   300.000  5000.000  1000.000    1
 4.75779238e+00 7.44142474e-03-2.69705176e-06 4.38090504e-10-2.63537098e-14    2
 3.90139164e+02-1.96680028e+00 3.71180502e+00-2.80463306e-03 3.76550971e-05    3
-4.73072089e-08 1.86588420e-11 1.30772484e+03 6.57240864e+00                   4
C2H5                    C   2H   5          G   300.000  5000.000  1000.000    1
 1.95465642e+00 1.73972722e-02-7.98206668e-06 1.75217689e-09-1.49641576e-13    2
 1.28575200e+04 1.34624343e+01 4.30646568e+00-4.18658892e-03 4.97142807e-05    3
-5.99126606e-08 2.30509004e-11 1.28416265e+04 4.70720924e+00                   4
C2H6                    C   2H   6          G   300.000  5000.000  1000.000    1
 1.07188150e+00 2.16852677e-02-1.00256067e-05 2.21412001e-09-1.90002890e-13    2
-1.14263932e+04 1.51156107e+01 4.29142492e+00-5.50154270e-03 5.99438288e-05    3
-7.08466285e-08 2.68685771e-11-1.15222055e+04 2.66682316e+00                   4
CH                      C   1H   1          G   300.000  5000.000  1000.000    1
 2.87846473e+00 9.70913681e-04 1.44445655e-07-1.30687849e-10 1.76079383e-14    2
 7.10124364e+04 5.48497999e+00 3.48981665e+00 3.23835541e-04-1.68899065e-06    3
 3.16217327e-09-1.40609067e-12 7.07972934e+04 2.08401108e+00                   4
C2H2                    C   2H   2          G   300.000  5000.000  1000.000    1
 4.14756964e+00 5.96166664e-03-2.37294852e-06 4.67412171e-10-3.61235213e-14    2
 2.59359992e+04-1.23028121e+00 8.08681094e-01 2.33615629e-02-3.55171815e-05    3
 2.80152437e-08-8.50072974e-12 2.64289807e+04 1.39397051e+01                   4
C2H4OOH                 C   2H   5O   2     G   300.000  5000.000  1000.000    1
 1.16258666e+01 1.00826346e-02-3.47934362e-06 5.43394220e-10-3.16569294e-14    2
-9.10568267e+02-3.18522902e+01 8.13237801e-01 3.90063400e-02-3.40643855e-05    3
 1.55066226e-08-2.84069840e-12 2.50785787e+03 2.49684459e+01                   4
OC2H3OOH                C   2H   4O   3     G   300.000  5000.000  1000.000    1
 1.24064339e+01 9.47233784e-03-3.28107928e-06 5.13772211e-10-2.99872803e-14    2
-3.49123142e+04-3.39479874e+01 5.52382546e+00 2.42068306e-02-1.52898974e-05    3
 5.01728362e-09-6.96406358e-13-3.23406789e+04 3.57240645e+00                   4
C2H3                    C   2H   3          G   300.000  5000.000  1000.000    1
 3.01672400e+00 1.03302292e-02-4.68082349e-06 1.01763288e-09-8.62607041e-14    2
 3.46128739e+04 7.78732378e+00 3.21246645e+00 1.51479162e-03 2.59209412e-05    3
-3.57657847e-08 1.47150873e-11 3.48598468e+04 8.51054025e+00                   4
CH2CHO                  C   2H   3O   1     G   300.000  5000.000  1000.000    1
 5.16620060e+00 1.08478260e-02-4.46583680e-06 8.06285480e-10-4.84101930e-14    2
-7.31993470e+02-1.96333610e+00 1.01340010e+00 2.26814670e-02-1.57339440e-05    3
 4.04915030e-09 2.95990120e-13 3.80428530e+02 1.93565520e+01                   4
C2H4O                   C   2H   4O   1     G   300.000  5000.000  1000.000    1
 5.40411080e+00 1.17230590e-02-4.22631370e-06 6.83724510e-10-4.09848630e-14    2
-2.25931220e+04-3.48079170e+00 4.72945950e+00-3.19328580e-03 4.75349210e-05    3
-5.74586110e-08 2.19311120e-11-2.15728780e+04 4.10301590e+00                   4
HCCO                    C   2H   1O   1     G   300.000  5000.000  1000.000    1
 5.62820580e+00 4.08534010e-03-1.59345470e-06 2.86260520e-10-1.94078320e-14    2
 1.93272150e+04-3.93025950e+00 2.25172140e+00 1.76550210e-02-2.37291010e-05    3
 1.72757590e-08-5.06648110e-12 2.00594490e+04 1.24904170e+01                   4
CH2CO                   C   2H   2O   1     G   300.000  5000.000  1000.000    1
 4.51129732e+00 9.00359745e-03-4.16939635e-06 9.23345882e-10-7.94838201e-14    2
-7.55105311e+03 6.32247205e-01 2.13583630e+00 1.81188721e-02-1.73947474e-05    3
 9.34397568e-09-2.01457615e-12-7.04291804e+03 1.22156480e+01                   4
C2H                     C   2H   1          G   300.000  5000.000  1000.000    1
 3.16780652e+00 4.75221902e-03-1.83787077e-06 3.04190252e-10-1.77232770e-14    2
 6.71210650e+04 6.63589475e+00 2.88965733e+00 1.34099611e-02-2.84769501e-05    3
 2.94791045e-08-1.09331511e-11 6.68393932e+04 6.22296438e+00                   4
CH2OH                   C   1H   3O   1     G   300.000  5000.000  1000.000    1
 5.09312037e+00 5.94758550e-03-2.06496524e-06 3.23006703e-10-1.88125052e-14    2
-4.05813228e+03-1.84690613e+00 4.47832317e+00-1.35069687e-03 2.78483707e-05    3
-3.64867397e-08 1.47906775e-11-3.52476728e+03 3.30911984e+00                   4
CH3OH                   C   1H   4O   1     G   300.000  5000.000  1000.000    1
 1.78970791e+00 1.40938292e-02-6.36500835e-06 1.38171085e-09-1.17060220e-13    2
-2.53748747e+04 1.45023623e+01 5.71539582e+00-1.52309129e-02 6.52441155e-05    3
-7.10806889e-08 2.61352698e-11-2.56427656e+04-1.50409823e+00                   4
CH3CHO                  C   2H   4O   1     G   300.000  5000.000  1000.000    1
 5.40411080e+00 1.17230590e-02-4.22631370e-06 6.83724510e-10-4.09848630e-14    2
-2.25931220e+04-3.48079170e+00 4.72945950e+00-3.19328580e-03 4.75349210e-05    3
-5.74586110e-08 2.19311120e-11-2.15728780e+04 4.10301590e+00                   4
CH3CO                   C   2H   3O   1     G   300.000  5000.000  1000.000    1
 5.94477310e+00 7.86672050e-03-2.88658820e-06 4.72708750e-10-2.85998610e-14    2
-3.78730750e+03-5.01367510e+00 4.16342570e+00-2.32616100e-04 3.42678200e-05    3
-4.41052270e-08 1.72756120e-11-2.65745290e+03 7.34682800e+00                   4
C2H5OH                  C   2H   6O   1     G   300.000  5000.000  1000.000    1
 4.34717120e+00 1.86288000e-02-6.77946700e-06 8.16592600e-10 0.00000000e+00    2
-3.06615743e+04 3.24247304e+00 5.76535800e-01 2.89451200e-02-1.61002000e-05    3
 3.59164100e-09 0.00000000e+00-2.96359500e+04 2.27081300e+01                   4
CH2CH2OH                C   2H   5O   1     G   300.000  5000.000  1000.000    1
 7.52244726e+00 1.10492715e-02-3.72576465e-06 5.72827397e-10-3.30061759e-14    2
-7.29337464e+03-1.24960750e+01 1.17714711e+00 2.48115685e-02-1.50299503e-05    3
 4.79006785e-09-6.40994211e-13-4.95369043e+03 2.20081586e+01                   4
CH3CHOH                 C   2H   5O   1     G   300.000  5000.000  1000.000    1
 7.26570301e+00 1.09588926e-02-3.63662803e-06 5.53659830e-10-3.17012322e-14    2
-8.64371441e+03-1.06822851e+01 1.83974631e+00 1.87789371e-02-4.60544253e-06    3
-2.13116990e-09 9.43772653e-13-6.29595195e+03 2.01446141e+01                   4
CH3CH2O                 C   2H   5O   1     G   300.000  5000.000  1000.000    1
 8.31182392e+00 1.03426319e-02-3.39186089e-06 5.12212617e-10-2.91601713e-14    2
-6.13097954e+03-2.13985581e+01-2.71296378e-01 2.98839812e-02-1.97090548e-05    3
 6.37339893e-09-7.77965054e-13-3.16397196e+03 2.47706003e+01                   4
C3H4                    C   3H   4          G   300.000  5000.000  1000.000    1
 6.31687220e+00 1.11337280e-02-3.96293780e-06 6.35642380e-10-3.78755400e-14    2
 2.01174950e+04-1.09957660e+01 2.61304450e+00 1.21225750e-02 1.85398800e-05    3
-3.45251490e-08 1.53350790e-11 2.15415670e+04 1.02261390e+01                   4
C3H3                    C   3H   3          G   300.000  5000.000  1000.000    1
 7.14221880e+00 7.61902005e-03-2.67459950e-06 4.24914801e-10-2.51475415e-14    2
 3.89087427e+04-1.25848436e+01 1.35110927e+00 3.27411223e-02-4.73827135e-05    3
 3.76309808e-08-1.18540923e-11 4.01057783e+04 1.52058924e+01                   4
C3H5                    C   3H   5          G   300.000  5000.000  1000.000    1
 6.50078770e+00 1.43247310e-02-5.67816320e-06 1.10808010e-09-9.03638870e-14    2
 1.74824490e+04-1.12430500e+01 1.36318350e+00 1.98138210e-02 1.24970600e-05    3
-3.33555550e-08 1.58465710e-11 1.92456290e+04 1.71732140e+01                   4
C3H6                    C   3H   6          G   300.000  5000.000  1000.000    1
 6.73225700e+00 1.49083400e-02-4.94989900e-06 7.21202200e-10-3.76620400e-14    2
-9.23570300e+02-1.33133500e+01 1.49330700e+00 2.09251800e-02 4.48679400e-06    3
-1.66891200e-08 7.15814600e-12 1.07482600e+03 1.61453400e+01                   4
C3H8                    C   3H   8          G   300.000  5000.000  1000.000    1
 7.52441520e+00 1.88982820e-02-6.29210410e-06 9.21614570e-10-4.86844780e-14    2
-1.65643940e+04-1.78383750e+01 9.28510930e-01 2.64605660e-02 6.03324460e-06    3
-2.19149530e-08 9.49615440e-12-1.40579070e+04 1.92255380e+01                   4
I-C3H7                  C   3H   7          G   300.000  5000.000  1000.000    1
 6.51927410e+00 1.72201040e-02-5.73642170e-06 8.41307320e-10-4.45659130e-14    2
 7.32271930e+03-9.08302150e+00 1.44491990e+00 2.09991120e-02 7.70362220e-06    3
-1.84762530e-08 7.12829620e-12 9.42237240e+03 2.01163170e+01                   4
N-C3H7                  C   3H   7          G   300.000  5000.000  1000.000    1
 7.70974790e+00 1.60314850e-02-5.27202380e-06 7.58883520e-10-3.88627190e-14    2
 7.97622360e+03-1.55152970e+01 1.04911730e+00 2.60089730e-02 2.35425160e-06    3
-1.95951320e-08 9.37202070e-12 1.03123460e+04 2.11360340e+01                   4
C3H6OOH                 C   3H   7O   2     G   300.000  5000.000  1000.000    1
 1.46139980e+01 1.43723015e-02-4.88635144e-06 7.56519620e-10-4.38364992e-14    2
-6.46101457e+03-4.57478245e+01 1.91005011e+00 4.11666833e-02-2.51630217e-05    3
 7.11856873e-09-6.98838732e-13-1.79305093e+03 2.34514457e+01                   4
OC3H5OOH                C   3H   6O   3     G   300.000  5000.000  1000.000    1
 1.70285271e+01 1.30716784e-02-4.59310856e-06 7.26135156e-10-4.26658337e-14    2
-4.16334217e+04-5.92513577e+01 7.68933034e-01 5.46905880e-02-4.65072405e-05    3
 2.03159585e-08-3.58398999e-12-3.63238861e+04 2.68291637e+01                   4
C4H10                   C   4H   10         G   300.000  5000.000  1392.000    1
 1.24940183e+01 2.17726258e-02-7.44272215e-06 1.15487023e-09-6.69712949e-14    2
-2.18403437e+04-4.45558921e+01-4.55756824e-01 4.80323389e-02-2.65497552e-05    3
 6.92544700e-09-6.38317504e-13-1.68960904e+04 2.64870966e+01                   4
PC4H9                   C   4H   9          G   300.000  5000.000  1391.000    1
 1.20779744e+01 1.96264778e-02-6.71302199e-06 1.04206424e-09-6.04469282e-14    2
 3.22550473e+03-3.87719384e+01 3.20730933e-01 4.34654454e-02-2.40584970e-05    3
 6.28245308e-09-5.80113166e-13 7.71490893e+03 2.57301085e+01                   4
SC4H9                   C   4H   9          G   300.000  5000.000  1381.000    1
 1.16934304e+01 1.96402287e-02-6.65306517e-06 1.02631895e-09-5.92826294e-14    2
 1.96382429e+03-3.61626672e+01 8.49159986e-01 3.82085320e-02-1.49626797e-05    3
 2.04499211e-10 8.24254437e-13 6.38832956e+03 2.44466606e+01                   4
C4H8                    C   4H   8          G   300.000  5000.000  1000.000    1
 2.05358400e+00 3.43505000e-02-1.58831960e-05 3.30896600e-09-2.53610400e-13    2
-2.13972300e+03 1.55432010e+01 1.18113800e+00 3.08533800e-02 5.08652400e-06    3
-2.46548800e-08 1.11101920e-11-1.79040000e+03 2.10624700e+01                   4
SC4H9O2                 C   4H   9O   2     G   300.000  5000.000  1389.000    1
 1.64031135e+01 2.09361006e-02-7.23393011e-06 1.13058996e-09-6.58938667e-14    2
-1.85074517e+04-5.77331636e+01 1.32689044e+00 5.62785583e-02-4.01717786e-05    3
 1.57120967e-08-2.62948443e-12-1.31557057e+04 2.34069659e+01                   4
C4H8OOH1-3              C   4H   9O   2     G   300.000  5000.000  1377.000    1
 1.76442170e+01 1.91706536e-02-6.57168641e-06 1.02246571e-09-5.94304735e-14    2
-1.01859280e+04-6.17115813e+01 1.94106276e+00 5.18789351e-02-3.10411683e-05    3
 8.63568881e-09-8.42841994e-13-4.34315962e+03 2.40230471e+01                   4
NC4KET13                C   4H   8O   3     G   300.000  5000.000  1386.000    1
 1.96430808e+01 1.80940566e-02-6.33063232e-06 9.97860399e-10-5.85076458e-14    2
-4.59588851e+04-7.16905094e+01 2.74883461e+00 5.86936745e-02-4.49605895e-05    3
 1.83200130e-08-3.11765369e-12-4.01065878e+04 1.88072090e+01                   4
CHCHO                   C   2H   2O   1     G   200.000  3000.000  1000.000    1
 5.96287949e+00 7.99898746e-03-4.30605647e-06 1.11076174e-09-1.11415021e-13    2
 2.87255915e+04-5.17392496e+00 2.06863692e+00 1.87233234e-02-1.21318942e-05    3
-3.33726595e-10 2.32881768e-12 2.97393543e+04 1.47865706e+01                   4
END

