!****************************************************************************
! Title: "A skeletal high-temperature oxidation model for n-heptane"
!
! Developed by Xiaoqing You and Hai Wang, 12/2007.
!
! Please contact Hai Wang at haiw@usc.edu for questions and comments 
!
!****************************************************************************
ELEMENTS
O     H     C     N   
END
SPECIES
   H            O            OH           HO2          H2        
   H2O          H2O2         O2           CH           CH2          
   CH2*         CH3          CH4          HCO          CH2O         
   CH3O         CH2OH        CH3OH        CO           CO2          
   C2H          C2H2         C2H3         C2H4         C2H5         
   C2H6         HCCO         CH2CO        CH3CO        CH2CHO       
   CH3CHO       C3H3         pC3H4        aC3H4        aC3H5        
   CH3CCH2      C3H6         nC3H7        iC3H7        C2H3CHO      
   C4H2         iC4H3        C4H4         iC4H5        C4H5-2       
   C4H6         C4H612       C4H6-2       C4H7         C4H81     
   pC4H9        NC7H16       PXC7H15      SXC7H15      C7H14        
   C7H13        PXC6H13      PXC5H11      SXC5H11      C5H10        
   C5H9         S2XC7H15     S3XC7H15     S2XC5H11     N2
END
REACTIONS
H+O2<=>O+OH                             2.6440E+16   -0.671  17041.00
O+H2<=>H+OH                             4.5890E+04    2.700   6260.00
OH+H2<=>H+H2O                           1.7340E+08    1.510   3430.00
2OH<=>O+H2O                             3.9730E+04    2.400  -2110.00
2H+M<=>H2+M                             1.7800E+18   -1.000      0.00
H2/ 0.00/ H2O/ 0.00/ 
CO2/ 0.00/ 
2H+H2O<=>H2+H2O                         5.6240E+19   -1.250      0.00
H+OH+M<=>H2O+M                          4.4000E+22   -2.000      0.00
H2/ 2.00/ H2O/ 6.30/ 
CO/ 1.75/ CO2/ 3.60/ 
O+H+M<=>OH+M                            9.4280E+18   -1.000      0.00
H2/ 2.00/ H2O/12.00/ 
CO/ 1.75/ CO2/ 3.60/ 
2O+M<=>O2+M                             1.2000E+17   -1.000      0.00
H2/ 2.40/ H2O/15.40/ 
CO/ 1.75/ CO2/ 3.60/ 
H+O2(+M)<=>HO2(+M)                      5.1160E+12    0.440      0.00
     LOW  / 6.3280E+19   -1.400      0.00/
     TROE/  0.50000E+00  0.10000E-29  0.10000E+31/
H2O/11.89/ O2/ 0.85/ 
CO/ 1.09/ CO2/ 2.18/ 
H2+O2<=>HO2+H                           5.9160E+05    2.433  53502.00
2OH(+M)<=>H2O2(+M)                      1.1100E+14   -0.370      0.00
     LOW  / 2.0100E+17   -0.584  -2293.00/
     TROE/  0.7346    94.0   1756.0   5182.0 /
H2/ 2.00/ H2O/ 6.00/ 
CO/ 1.75/ CO2/ 3.60/ 
HO2+H<=>O+H2O                           3.9700E+12    0.000    671.00
HO2+H<=>2OH                             7.4850E+13    0.000    295.00
HO2+O<=>OH+O2                           4.0000E+13    0.000      0.00
HO2+OH<=>O2+H2O                         2.3750E+13    0.000   -500.00
 DUPLICATE
HO2+OH<=>O2+H2O                         1.0000E+16    0.000  17330.00
 DUPLICATE
2HO2<=>O2+H2O2                          1.3000E+11    0.000  -1630.00
 DUPLICATE
2HO2<=>O2+H2O2                          3.6580E+14    0.000  12000.00
 DUPLICATE
H2O2+H<=>HO2+H2                         6.0500E+06    2.000   5200.00
H2O2+H<=>OH+H2O                         2.4100E+13    0.000   3970.00
H2O2+O<=>OH+HO2                         9.6300E+06    2.000   3970.00
H2O2+OH<=>HO2+H2O                       2.0000E+12    0.000    427.00
 DUPLICATE
H2O2+OH<=>HO2+H2O                       2.6700E+41   -7.000  37600.00
 DUPLICATE
CO+O(+M)<=>CO2(+M)                      1.3620E+10    0.000   2384.00
     LOW  / 1.1730E+24   -2.790   4191.00/
H2/ 2.00/ H2O/12.00/ 
CO/ 1.75/ CO2/ 3.60/ 
CO+OH<=>CO2+H                           8.0000E+11    0.140   7352.00
 DUPLICATE
CO+OH<=>CO2+H                           8.7840E+10    0.030    -16.00
 DUPLICATE
CO+HO2<=>CO2+OH                         3.0100E+13    0.000  23000.00
HCO+H<=>CO+H2                           1.2000E+14    0.000      0.00
HCO+O<=>CO+OH                           3.0000E+13    0.000      0.00
HCO+O<=>CO2+H                           3.0000E+13    0.000      0.00
HCO+OH<=>CO+H2O                         3.0200E+13    0.000      0.00
HCO+M<=>CO+H+M                          1.8700E+17   -1.000  17000.00
H2/ 2.00/ H2O/ 0.00/ CO/ 1.75/ 
CO2/ 3.60/ 
HCO+H2O<=>CO+H+H2O                      2.2440E+18   -1.000  17000.00
HCO+O2<=>CO+HO2                         1.2040E+10    0.807   -727.00
CH+O<=>CO+H                             5.7000E+13    0.000      0.00
CH+OH<=>HCO+H                           3.0000E+13    0.000      0.00
CH+H2<=>CH2+H                           1.1070E+08    1.790   1670.00
CH+H2O<=>CH2O+H                         5.7100E+12    0.000   -755.00
CH+O2<=>HCO+O                           3.3000E+13    0.000      0.00
CH+CO2<=>HCO+CO                         3.4000E+12    0.000    690.00
CH2+O<=>HCO+H                           8.0000E+13    0.000      0.00
CH2+OH<=>CH2O+H                         2.0000E+13    0.000      0.00
CH2+OH<=>CH+H2O                         1.1300E+07    2.000   3000.00
CH2+H2<=>H+CH3                          5.0000E+05    2.000   7230.00
CH2+O2<=>HCO+OH                         1.0600E+13    0.000   1500.00
CH2+O2<=>CO2+2H                         2.6400E+12    0.000   1500.00
CH2+HO2<=>CH2O+OH                       2.0000E+13    0.000      0.00
CH2+CO(+M)<=>CH2CO(+M)                  8.1000E+11    0.500   4510.00
     LOW  / 2.6900E+33   -5.110   7095.00/
     TROE/  0.5907   275.0   1226.0   5185.0 /
H2/ 2.00/ H2O/ 6.00/ 
CH4/ 2.00/ CO/ 1.50/ CO2/ 2.00/ C2H6/ 3.00/ 
CH2*+N2<=>CH2+N2                        1.5000E+13    0.000    600.00
CH2*+H<=>CH+H2                          3.0000E+13    0.000      0.00
CH2*+OH<=>CH2O+H                        3.0000E+13    0.000      0.00
CH2*+H2<=>CH3+H                         7.0000E+13    0.000      0.00
CH2*+O2<=>H+OH+CO                       2.8000E+13    0.000      0.00
CH2*+O2<=>CO+H2O                        1.2000E+13    0.000      0.00
CH2*+H2O(+M)<=>CH3OH(+M)                2.0000E+13    0.000      0.00
     LOW  / 2.7000E+38   -6.300   3100.00/
     TROE/  0.1507   134.0   2383.0   7265.0 /
H2/ 2.00/ H2O/ 6.00/ CH4/ 2.00/ 
CO/ 1.50/ CO2/ 2.00/ C2H6/ 3.00/ 
CH2*+H2O<=>CH2+H2O                      3.0000E+13    0.000      0.00
CH2*+CO<=>CH2+CO                        9.0000E+12    0.000      0.00
CH2*+CO2<=>CH2+CO2                      7.0000E+12    0.000      0.00
CH2*+CO2<=>CH2O+CO                      1.4000E+13    0.000      0.00
CH2O+H(+M)<=>CH2OH(+M)                  5.4000E+11    0.454   3600.00
     LOW  / 1.2700E+32   -4.820   6530.00/
     TROE/  0.7187   103.0   1291.0   4160.0 /
H2/ 2.00/ H2O/ 6.00/ CH4/ 2.00/ 
CO/ 1.50/ CO2/ 2.00/ C2H6/ 3.00/ 
CH2O+H(+M)<=>CH3O(+M)                   5.4000E+11    0.454   2600.00
     LOW  / 2.2000E+30   -4.800   5560.00/
     TROE/  0.7580    94.0   1555.0   4200.0 /
H2/ 2.00/ H2O/ 6.00/ CH4/ 2.00/ 
CO/ 1.50/ CO2/ 2.00/ C2H6/ 3.00/ 
CH2O+H<=>HCO+H2                         2.3000E+10    1.050   3275.00
CH2O+O<=>HCO+OH                         3.9000E+13    0.000   3540.00
CH2O+OH<=>HCO+H2O                       3.4300E+09    1.180   -447.00
CH2O+O2<=>HCO+HO2                       1.0000E+14    0.000  40000.00
CH2O+HO2<=>HCO+H2O2                     1.0000E+12    0.000   8000.00
CH2O+CH<=>CH2CO+H                       9.4600E+13    0.000   -515.00
CH3+H(+M)<=>CH4(+M)                     1.2700E+16   -0.630    383.00
     LOW  / 2.4770E+33   -4.760   2440.00/
     TROE/  0.7830    74.0   2941.0   6964.0 /
H2/ 2.00/ H2O/ 6.00/ 
CH4/ 2.00/ CO/ 1.50/ CO2/ 2.00/ C2H6/ 3.00/ 
CH3+O<=>CH2O+H                          8.4300E+13    0.000      0.00
CH3+OH(+M)<=>CH3OH(+M)                  6.3000E+13    0.000      0.00
     LOW  / 2.7000E+38   -6.300   3100.00/
     TROE/  0.2105    83.5   5398.0   8370.0 /
H2/ 2.00/ H2O/ 6.00/ CH4/ 2.00/ 
CO/ 1.50/ CO2/ 2.00/ C2H6/ 3.00/ 
CH3+OH<=>CH2+H2O                        5.6000E+07    1.600   5420.00
CH3+OH<=>CH2*+H2O                       2.5010E+13    0.000      0.00
CH3+O2<=>O+CH3O                         3.0830E+13    0.000  28800.00
CH3+O2<=>OH+CH2O                        3.6000E+10    0.000   8940.00
CH3+HO2<=>CH4+O2                        1.0000E+12    0.000      0.00
CH3+HO2<=>CH3O+OH                       1.3400E+13    0.000      0.00
CH3+CH<=>C2H3+H                         3.0000E+13    0.000      0.00
CH3+HCO<=>CH4+CO                        8.4800E+12    0.000      0.00
CH3+CH2O<=>CH4+HCO                      3.3200E+03    2.810   5860.00
CH3+CH2<=>C2H4+H                        4.0000E+13    0.000      0.00
2CH3(+M)<=>C2H6(+M)                     2.1200E+16   -0.970    620.00
     LOW  / 1.7700E+50   -9.670   6220.00/
     TROE/  0.5325   151.0   1038.0   4970.0 /
H2/ 2.00/ H2O/ 6.00/ 
CH4/ 2.00/ CO/ 1.50/ CO2/ 2.00/ C2H6/ 3.00/ 
2CH3<=>H+C2H5                           4.9900E+12    0.100  10600.00
CH3+HCCO<=>C2H4+CO                      5.0000E+13    0.000      0.00
CH3O+H<=>CH2O+H2                        2.0000E+13    0.000      0.00
CH3O+H<=>CH3+OH                         3.2000E+13    0.000      0.00
CH3O+H<=>CH2*+H2O                       1.6000E+13    0.000      0.00
CH3O+OH<=>CH2O+H2O                      5.0000E+12    0.000      0.00
CH3O+O2<=>CH2O+HO2                      4.2800E-13    7.600  -3530.00
CH2OH+H<=>CH2O+H2                       2.0000E+13    0.000      0.00
CH2OH+H<=>CH3+OH                        1.2000E+13    0.000      0.00
CH2OH+H<=>CH2*+H2O                      6.0000E+12    0.000      0.00
CH2OH+O2<=>CH2O+HO2                     1.8000E+13    0.000    900.00
CH4+H<=>CH3+H2                          6.6000E+08    1.620  10840.00
CH4+O<=>CH3+OH                          1.0200E+09    1.500   8600.00
CH4+OH<=>CH3+H2O                        1.0000E+08    1.600   3120.00
CH4+CH<=>C2H4+H                         6.0000E+13    0.000      0.00
CH4+CH2<=>2CH3                          2.4600E+06    2.000   8270.00
CH4+CH2*<=>2CH3                         1.6000E+13    0.000   -570.00
CH3OH+H<=>CH2OH+H2                      1.7000E+07    2.100   4870.00
CH3OH+H<=>CH3O+H2                       4.2000E+06    2.100   4870.00
CH3OH+O<=>CH2OH+OH                      3.8800E+05    2.500   3100.00
CH3OH+OH<=>CH2OH+H2O                    1.4400E+06    2.000   -840.00
CH3OH+OH<=>CH3O+H2O                     6.3000E+06    2.000   1500.00
C2H+O<=>CH+CO                           5.0000E+13    0.000      0.00
C2H+OH<=>H+HCCO                         2.0000E+13    0.000      0.00
C2H+O2<=>HCO+CO                         5.0000E+13    0.000   1500.00
C2H+H2<=>H+C2H2                         4.9000E+05    2.500    560.00
HCCO+H<=>CH2*+CO                        1.0000E+14    0.000      0.00
HCCO+O<=>H+2CO                          1.0000E+14    0.000      0.00
HCCO+O2<=>OH+2CO                        1.6000E+12    0.000    854.00 
C2H3(+M)<=>C2H2+H(+M)                   3.8600E+08    1.620  37048.20
     LOW  / 2.5650E+27   -3.400  35798.72/
     TROE/  1.9816  5383.7      4.3     -0.1 /
H2/ 2.00/ H2O/ 6.00/ 
CH4/ 2.00/ CO/ 1.50/ CO2/ 2.00/ C2H2/ 3.00/ C2H4/ 3.00/ C2H6/ 3.00/ 
C2H2+O<=>C2H+OH                         4.6000E+19   -1.410  28950.00
C2H2+O<=>CH2+CO                         4.0800E+06    2.000   1900.00
C2H2+O<=>HCCO+H                         1.6320E+07    2.000   1900.00
C2H2+OH<=>CH2CO+H                       2.1800E-04    4.500  -1000.00
DUPLICATE
C2H2+OH<=>CH2CO+H                       5.0400E+05    2.300  13500.00
DUPLICATE
C2H2+OH<=>C2H+H2O                       3.3700E+07    2.000  14000.00
C2H2+HCO<=>C2H3+CO                      1.0000E+07    2.000   6000.00
C2H2+CH2<=>C3H3+H                       1.2000E+13    0.000   6620.00
C2H2+CH2*<=>C3H3+H                      2.0000E+13    0.000      0.00
C2H2+C2H<=>C4H2+H                       9.6000E+13    0.000      0.00
C2H2+CH3<=>pC3H4+H                      2.5600E+09    1.100  13644.00
C2H2+CH3<=>aC3H4+H                      5.1400E+09    0.860  22153.00
CH2CO+H(+M)<=>CH2CHO(+M)                3.3000E+14   -0.060   8500.00
     LOW  / 3.8000E+41   -7.640  11900.00/
     TROE/  0.3370  1707.0   3200.0   4131.0 /
H2/ 2.00/ H2O/ 6.00/ 
CH4/ 2.00/ CO/ 1.50/ CO2/ 2.00/ C2H2/ 3.00/ C2H4/ 3.00/ C2H6/ 3.00/ 
CH2CO+H<=>HCCO+H2                       5.0000E+13    0.000   8000.00
CH2CO+H<=>CH3+CO                        1.5000E+09    1.430   2690.00
CH2CO+OH<=>HCCO+H2O                     7.5000E+12    0.000   2000.00
C2H3+H(+M)<=>C2H4(+M)                   6.0800E+12    0.270    280.00
     LOW  / 1.4000E+30   -3.860   3320.00/
     TROE/  0.7820   207.5   2663.0   6095.0 /
H2/ 2.00/ H2O/ 6.00/ 
CH4/ 2.00/ CO/ 1.50/ CO2/ 2.00/ C2H2/ 3.00/ C2H4/ 3.00/ C2H6/ 3.00/ 
C2H3+H<=>C2H2+H2                        9.0000E+13    0.000      0.00
C2H3+O<=>CH2CO+H                        4.8000E+13    0.000      0.00
C2H3+O<=>CH3+CO                         4.8000E+13    0.000      0.00
C2H3+OH<=>C2H2+H2O                      3.0110E+13    0.000      0.00
C2H3+O2<=>C2H2+HO2                      1.3400E+06    1.610   -383.40
C2H3+O2<=>CH2CHO+O                      3.0000E+11    0.290     11.00
C2H3+O2<=>HCO+CH2O                      4.6000E+16   -1.390   1010.00
C2H3+HO2<=>CH2CHO+OH                    1.0000E+13    0.000      0.00
C2H3+HCO<=>C2H4+CO                      9.0330E+13    0.000      0.00
C2H3+HCO<=>C2H3CHO                      1.8000E+13    0.000      0.00
C2H3+CH3(+M)<=>C3H6(+M)                 2.5000E+13    0.000      0.00
     LOW  / 4.2700E+58  -11.940   9769.80/
     TROE/  0.1750  1340.6  60000.0  10139.8 /
H2/ 2.00/ H2O/ 6.00/ 
CH4/ 2.00/ CO/ 1.50/ CO2/ 2.00/ C2H4/ 3.00/ C2H6/ 3.00/ 
C2H3+CH3<=>aC3H5+H                      1.5000E+24   -2.830  18618.00
CH2CHO<=>CH3+CO                         7.8000E+41   -9.147  46900.00
CH2CHO+H<=>CH3CO+H                      5.0000E+12    0.000      0.00
CH2CHO+H<=>CH3+HCO                      9.0000E+13    0.000      0.00
CH2CHO+H<=>CH2CO+H2                     2.0000E+13    0.000   4000.00
CH2CHO+OH<=>CH2CO+H2O                   1.0000E+13    0.000   2000.00
CH2CHO+O2<=>CH2CO+HO2                   1.4000E+11    0.000      0.00
CH2CHO+O2<=>CH2O+CO+OH                  1.8000E+10    0.000      0.00
CH3+CO(+M)<=>CH3CO(+M)                  4.8500E+07    1.650   6150.00
     LOW  / 7.8000E+30   -5.395   8600.00/
     TROE/  0.2580   598.0  21002.0   1773.0 /
H2/ 2.00/ H2O/ 6.00/ 
CH4/ 2.00/ CO/ 1.50/ CO2/ 2.00/ C2H2/ 3.00/ C2H4/ 3.00/ C2H6/ 3.00/ 
CH3CO+H<=>CH3+HCO                       9.6000E+13    0.000      0.00
CH3CO+HO2<=>CH3+CO2+OH                  3.0000E+13    0.000      0.00
CH3+HCO(+M)<=>CH3CHO(+M)                1.8000E+13    0.000      0.00
     LOW  / 2.2000E+48   -9.588   5100.00/
     TROE/  0.6173    13.1   2078.0   5093.0 /
H2/ 2.00/ H2O/ 6.00/ CH4/ 2.00/ 
CO/ 1.50/ CO2/ 2.00/ C2H2/ 3.00/ C2H4/ 3.00/ C2H6/ 3.00/ 
CH3CHO+H<=>CH3CO+H2                     4.1000E+09    1.160   2400.00
CH3CHO+OH<=>CH3CO+H2O                   2.3500E+10    0.730  -1110.00
CH3CHO+CH3<=>CH3CO+CH4                  2.0000E-06    5.600   2460.00
CH3CHO+O2<=>CH3CO+HO2                   3.0000E+13    0.000  39100.00
C2H4(+M)<=>H2+C2H2(+M)                  8.0000E+12    0.440  88770.00
     LOW  / 7.0000E+50   -9.310  99860.00/
     TROE/  0.7345   180.0   1035.0   5417.0 /
H2/ 2.00/ H2O/ 6.00/ 
CH4/ 2.00/ CO/ 1.50/ CO2/ 2.00/ C2H6/ 3.00/ 
C2H4+H(+M)<=>C2H5(+M)                   1.3670E+09    1.463   1355.00
     LOW  / 2.0270E+39   -6.642   5769.00/
     TROE/ -0.5690   299.0   9147.0   -152.4 /
C2H4+H<=>C2H3+H2                        5.0700E+07    1.900  12950.00
C2H4+O<=>C2H3+OH                        1.5100E+07    1.900   3740.00
C2H4+O<=>CH3+HCO                        1.9200E+07    1.830    220.00
C2H4+O<=>CH2+CH2O                       3.8400E+05    1.830    220.00
C2H4+OH<=>C2H3+H2O                      3.6000E+06    2.000   2500.00
C2H4+HCO<=>C2H5+CO                      1.0000E+07    2.000   8000.00
C2H4+CH<=>aC3H4+H                       3.0000E+13    0.000      0.00
C2H4+CH<=>pC3H4+H                       3.0000E+13    0.000      0.00
C2H4+CH2<=>aC3H5+H                      2.0000E+13    0.000   6000.00
C2H4+CH2*<=>aC3H5+H                     5.0000E+13    0.000      0.00
C2H4+CH3<=>C2H3+CH4                     2.2700E+05    2.000   9200.00
C2H4+CH3<=>nC3H7                        3.3000E+11    0.000   7700.00
C2H4+C2H3<=>C4H7                        7.9300E+38   -8.470  14220.00
C2H5+H(+M)<=>C2H6(+M)                   5.2100E+17   -0.990   1580.00
     LOW  / 1.9900E+41   -7.080   6685.00/
     TROE/  0.8422   125.0   2219.0   6882.0 /
H2/ 2.00/ H2O/ 6.00/ 
CH4/ 2.00/ CO/ 1.50/ CO2/ 2.00/ C2H6/ 3.00/ 
C2H5+H<=>C2H4+H2                        2.0000E+12    0.000      0.00
C2H5+O<=>CH3+CH2O                       1.6040E+13    0.000      0.00
C2H5+O<=>CH3CHO+H                       8.0200E+13    0.000      0.00
C2H5+O2<=>C2H4+HO2                      2.0000E+10    0.000      0.00
C2H5+HO2<=>C2H6+O2                      3.0000E+11    0.000      0.00
C2H5+HO2<=>C2H4+H2O2                    3.0000E+11    0.000      0.00
C2H5+HO2<=>CH3+CH2O+OH                  2.4000E+13    0.000      0.00
C2H5+C2H3(+M)<=>C4H81(+M)               1.5000E+13    0.000      0.00
     LOW  / 1.5500E+56  -11.790   8984.50/
     TROE/  0.1980  2277.9  60000.0   5723.2 /
H2/ 2.00/ H2O/ 6.00/ 
CH4/ 2.00/ CO/ 1.50/ CO2/ 2.00/ C2H6/ 3.00/ 
C2H5+C2H3<=>aC3H5+CH3                   3.9000E+32   -5.220  19747.00
C2H6+H<=>C2H5+H2                        1.1500E+08    1.900   7530.00
C2H6+O<=>C2H5+OH                        8.9800E+07    1.920   5690.00
C2H6+OH<=>C2H5+H2O                      3.5400E+06    2.120    870.00
C2H6+CH2*<=>C2H5+CH3                    4.0000E+13    0.000   -550.00
C2H6+CH3<=>C2H5+CH4                     6.1400E+06    1.740  10450.00
C3H3+H<=>pC3H4                          1.5000E+13    0.000      0.00
C3H3+O<=>CH2O+C2H                       2.0000E+13    0.000      0.00
C3H3+O2<=>CH2CO+HCO                     3.0000E+10    0.000   2868.00
C3H3+HO2<=>pC3H4+O2                     2.5000E+12    0.000      0.00
aC3H4+H<=>CH3CCH2                       9.4600E+42   -9.430  11190.00
aC3H4+H<=>aC3H5                         1.5200E+59  -13.540  26949.00
aC3H4+O<=>C2H4+CO                       2.0000E+07    1.800   1000.00
aC3H4+OH<=>C3H3+H2O                     5.3000E+06    2.000   2000.00
pC3H4<=>aC3H4                           5.1500E+60  -13.930  91117.00
pC3H4+H<=>aC3H4+H                       6.2700E+17   -0.910  10079.00
pC3H4+H<=>CH3CCH2                       1.6600E+47  -10.580  13690.00
pC3H4+O<=>C2H4+CO                       1.0000E+13    0.000   2250.00
pC3H4+OH<=>C3H3+H2O                     1.0000E+06    2.000    100.00
aC3H5+H(+M)<=>C3H6(+M)                  2.0000E+14    0.000      0.00
     LOW  / 1.3300E+60  -12.000   5967.80/
     TROE/  0.0200  1096.6   1096.6   6859.5 /
H2/ 2.00/ H2O/ 6.00/ 
CH4/ 2.00/ CO/ 1.50/ CO2/ 2.00/ C2H6/ 3.00/ 
aC3H5+H<=>aC3H4+H2                      1.8000E+13    0.000      0.00
aC3H5+O<=>C2H3CHO+H                     6.0000E+13    0.000      0.00
aC3H5+OH<=>C2H3CHO+2H                   4.2000E+32   -5.160  30126.00
aC3H5+OH<=>aC3H4+H2O                    6.0000E+12    0.000      0.00
aC3H5+HO2<=>C3H6+O2                     2.6600E+12    0.000      0.00
aC3H5+HO2<=>OH+C2H3+CH2O                6.6000E+12    0.000      0.00
aC3H5+HCO<=>C3H6+CO                     6.0000E+13    0.000      0.00
aC3H5+CH3(+M)<=>C4H81(+M)               1.0000E+14   -0.320   -262.30
     LOW  / 3.9100E+60  -12.810   6250.00/
     TROE/  0.1040  1606.0  60000.0   6118.4 /
H2/ 2.00/ H2O/ 6.00/ 
CH4/ 2.00/ CO/ 1.50/ CO2/ 2.00/ C2H6/ 3.00/ 
aC3H5+CH3<=>aC3H4+CH4                   3.0000E+12   -0.320   -131.00
CH3CCH2+O2<=>CH3CO+CH2O                 1.0000E+11    0.000      0.00
CH3CCH2+HO2<=>CH3+CH2CO+OH              2.0000E+13    0.000      0.00
C3H6+H(+M)<=>nC3H7(+M)                  1.3300E+13    0.000   3260.70
     LOW  / 6.2600E+38   -6.660   7000.00/
     TROE/  1.0000  1000.0   1310.0  48097.0 /
H2/ 2.00/ H2O/ 6.00/ 
CH4/ 2.00/ CO/ 1.50/ CO2/ 2.00/ C2H6/ 3.00/ 
C3H6+H(+M)<=>iC3H7(+M)                  1.3300E+13    0.000   1559.80
     LOW  / 8.7000E+42   -7.500   4721.80/
     TROE/  1.0000  1000.0    645.4   6844.3 /
H2/ 2.00/ H2O/ 6.00/ 
CH4/ 2.00/ CO/ 1.50/ CO2/ 2.00/ C2H6/ 3.00/ 
C3H6+H<=>C2H4+CH3                       8.0000E+21   -2.390  11180.00
C3H6+H<=>aC3H5+H2                       1.7300E+05    2.500   2490.00
C3H6+H<=>CH3CCH2+H2                     4.0000E+05    2.500   9790.00
C3H6+O<=>CH2CO+CH3+H                    8.0000E+07    1.650    327.00
C3H6+O<=>C2H3CHO+2H                     4.0000E+07    1.650    327.00
C3H6+O<=>C2H5+HCO                       3.5000E+07    1.650   -972.00
C3H6+O<=>aC3H5+OH                       1.8000E+11    0.700   5880.00
C3H6+O<=>CH3CCH2+OH                     6.0000E+10    0.700   7630.00
C3H6+OH<=>aC3H5+H2O                     3.1000E+06    2.000   -298.00
C3H6+OH<=>CH3CCH2+H2O                   1.1000E+06    2.000   1450.00
C3H6+CH3<=>aC3H5+CH4                    2.2000E+00    3.500   5675.00
C2H3CHO+O<=>C2H3+OH+CO                  3.0000E+13    0.000   3540.00
C2H3CHO+O<=>CH2O+CH2CO                  1.9000E+07    1.800    220.00
iC3H7+H<=>CH3+C2H5                      1.4000E+28   -3.940  15916.00
iC3H7+O<=>CH3CHO+CH3                    9.6000E+13    0.000      0.00
iC3H7+OH<=>C3H6+H2O                     2.4000E+13    0.000      0.00
iC3H7+O2<=>C3H6+HO2                     1.3000E+11    0.000      0.00
iC3H7+HO2<=>CH3CHO+CH3+OH               2.4000E+13    0.000      0.00
iC3H7+CH3<=>CH4+C3H6                    2.2000E+14   -0.680      0.00
nC3H7+H<=>C2H5+CH3                      3.7000E+24   -2.920  12505.00
nC3H7+OH<=>C3H6+H2O                     2.4000E+13    0.000      0.00
nC3H7+O2<=>C3H6+HO2                     9.0000E+10    0.000      0.00
nC3H7+HO2<=>C2H5+OH+CH2O                2.4000E+13    0.000      0.00
nC3H7+CH3<=>CH4+C3H6                    1.1000E+13    0.000      0.00
C4H2+H<=>iC4H3                          1.1000E+30   -4.920  10800.00
iC4H3+H<=>C4H2+H2                       6.0000E+13    0.000      0.00
C4H4+OH<=>iC4H3+H2O                     1.5500E+07    2.000    430.00
C4H5-2<=>iC4H5                          1.5000E+67  -16.890  59100.00
C4H6+H<=>C2H4+C2H3                      1.4600E+30   -4.340  21647.00
C4H6+OH<=>iC4H5+H2O                     3.1000E+06    2.000    430.00
C4H612<=>iC4H5+H                        4.2000E+15    0.000  92600.00
C4H6-2<=>H+C4H5-2                       5.0000E+15    0.000  87300.00
C4H7<=>C4H6+H                           2.4800E+53  -12.300  52000.00
C4H7+O2<=>C4H6+HO2                      1.0000E+11    0.000      0.00
C4H7+HO2<=>CH2O+OH+aC3H5                2.4000E+13    0.000      0.00
C4H81+H<=>C2H4+C2H5                     1.6000E+22   -2.390  11180.00
C4H81+H<=>C3H6+CH3                      3.2000E+22   -2.390  11180.00
C4H81+H<=>C4H7+H2                       6.5000E+05    2.540   6756.00
C4H81+O<=>nC3H7+HCO                     3.3000E+08    1.450   -402.00
C2H4+C2H5<=>pC4H9                       1.5000E+11    0.000   7300.00
pC4H9+OH<=>C4H81+H2O                    2.4000E+13    0.000      0.00
pC4H9+O2<=>C4H81+HO2                    2.7000E+11    0.000      0.00
pC4H9+HO2<=>nC3H7+OH+CH2O               2.4000E+13    0.000      0.00
pC4H9+CH3<=>C4H81+CH4                   1.1000E+13    0.000      0.00
C5H10+H(+M)<=>PXC5H11(+M)               1.3300E+13    0.000   3260.70
     LOW  / 6.2600E+38   -6.660   7000.00/
     TROE/  1.0000  1000.0   1310.0  48097.0 /
 H2/ 2.00/ H2O/ 6.00/ 
CH4/ 2.00/ CO/ 1.50/ CO2/ 2.00/ C2H6/ 3.00/ 
C5H10+H(+M)<=>SXC5H11(+M)               1.3300E+13    0.000   1559.80
     LOW  / 8.7000E+42   -7.500   4721.80/
     TROE/  1.0000  1000.0    645.4   6844.3 /
 H2/ 2.00/ H2O/ 6.00/ 
CH4/ 2.00/ CO/ 1.50/ CO2/ 2.00/ C2H6/ 3.00/ 
C5H10+H<=>C2H4+nC3H7                    8.0000E+21   -2.390  11180.00
C5H10+H<=>C3H6+C2H5                     1.6000E+22   -2.390  11180.00
C5H10+H<=>C5H9+H2                       6.5000E+05    2.540   6756.00
C5H10+O<=>pC4H9+HCO                     3.3000E+08    1.450   -402.00
C5H10+O<=>C5H9+OH                       2.6000E+13    0.000   4470.00
C3H6+C2H5<=>SXC5H11                     3.0000E+11    0.000   7300.00
SXC5H11+O2<=>C5H10+HO2                  1.3000E+11    0.000      0.00
C4H81+CH3(+M)<=>S2XC5H11(+M)            1.7000E+11    0.000   7403.60
     LOW  / 2.3100E+28   -4.270   1831.00/
     TROE/  0.5650 60000.0    534.2   3007.2 /
 H2/ 2.00/ H2O/ 6.00/ 
CH4/ 2.00/ CO/ 1.50/ CO2/ 2.00/ C2H6/ 3.00/ 
C2H4+nC3H7<=>PXC5H11                    3.0000E+11    0.000   7300.00
PXC5H11+OH<=>C5H10+H2O                  2.4000E+13    0.000      0.00
PXC5H11+O2<=>C5H10+HO2                  9.0000E+10    0.000      0.00
PXC5H11+HO2<=>pC4H9+OH+CH2O             2.4000E+13    0.000      0.00
PXC5H11+CH3<=>C5H10+CH4                 1.1000E+13    0.000      0.00
C2H4+aC3H5<=>C5H9                       3.0000E+11    0.000   7300.00
C2H4+pC4H9<=>PXC6H13                    3.0000E+11    0.000   7300.00
PXC6H13+HO2<=>PXC5H11+OH+CH2O           2.4000E+13    0.000      0.00
C2H4+C5H9<=>C7H13                       3.0000E+11    0.000   7300.00
C7H14+H(+M)<=>PXC7H15(+M)               1.3300E+13    0.000   3260.70
     LOW  / 6.2600E+38   -6.660   7000.00/
     TROE/  1.0000  1000.0   1310.0  48097.0 /
 H2/ 2.00/ H2O/ 6.00/ 
CH4/ 2.00/ CO/ 1.50/ CO2/ 2.00/ C2H6/ 3.00/ 
C7H14+H(+M)<=>SXC7H15(+M)               1.3300E+13    0.000   1559.80
     LOW  / 8.7000E+42   -7.500   4721.80/
     TROE/  1.0000  1000.0    645.4   6844.3 /
 H2/ 2.00/ H2O/ 6.00/ 
CH4/ 2.00/ CO/ 1.50/ CO2/ 2.00/ C2H6/ 3.00/ 
C7H14+H<=>C2H4+PXC5H11                  8.0000E+21   -2.390  11180.00
C7H14+H<=>C3H6+pC4H9                    1.6000E+22   -2.390  11180.00
C7H14+H<=>C7H13+H2                      6.5000E+05    2.540   6756.00
C7H14+O<=>PXC6H13+HCO                   3.3000E+08    1.450   -402.00
C2H4+PXC5H11<=>PXC7H15                  3.0000E+11    0.000   7300.00
PXC7H15+OH<=>C7H14+H2O                  2.4000E+13    0.000      0.00
PXC7H15+O2<=>C7H14+HO2                  9.0000E+10    0.000      0.00
PXC7H15+HO2<=>PXC6H13+OH+CH2O           2.4000E+13    0.000      0.00
PXC7H15+CH3<=>C7H14+CH4                 1.1000E+13    0.000      0.00
pC4H9+C3H6<=>SXC7H15                    3.0000E+11    0.000   7300.00
SXC7H15+H(+M)<=>NC7H16(+M)              2.4000E+13    0.000      0.00
     LOW  / 1.7000E+58  -12.080  11263.70/
     TROE/  0.6490  1213.1   1213.1  13369.7 /
 H2/ 2.00/ H2O/ 6.00/ 
CH4/ 2.00/ CO/ 1.50/ CO2/ 2.00/ C2H6/ 3.00/ 
SXC7H15+OH<=>C7H14+H2O                  2.4000E+13    0.000      0.00
SXC7H15+O2<=>C7H14+HO2                  1.3000E+11    0.000      0.00
SXC7H15+HO2<=>CH3CHO+PXC5H11+OH         2.4000E+13    0.000      0.00
SXC7H15+CH3<=>CH4+C7H14                 2.2000E+14   -0.680      0.00
nC3H7+C4H81<=>S2XC7H15                  3.0000E+11    0.000   7300.00
C2H5+C5H10<=>S3XC7H15                   3.0000E+11    0.000   7300.00
S3XC7H15+O2<=>C7H14+HO2                 1.3000E+11    0.000      0.00
PXC6H13+CH3<=>NC7H16                    1.9300E+14   -0.320      0.00
PXC5H11+C2H5<=>NC7H16                   1.8800E+14   -0.500      0.00
pC4H9+nC3H7<=>NC7H16                    1.8800E+14   -0.500      0.00
NC7H16+H<=>PXC7H15+H2                   1.3000E+06    2.540   6756.00
NC7H16+H<=>SXC7H15+H2                   2.6000E+06    2.400   4471.00
NC7H16+O<=>PXC7H15+OH                   1.9000E+05    2.680   3716.00
NC7H16+O<=>SXC7H15+OH                   9.5200E+04    2.710   2106.00
NC7H16+OH<=>PXC7H15+H2O                 1.4000E+03    2.660    527.00
NC7H16+OH<=>SXC7H15+H2O                 5.4000E+04    2.390    393.00
NC7H16+O2<=>PXC7H15+HO2                 4.0000E+13    0.000  50930.00
NC7H16+O2<=>SXC7H15+HO2                 8.0000E+13    0.000  47590.00
NC7H16+HO2<=>SXC7H15+H2O2               1.9000E+04    2.600  13910.00
NC7H16+CH3<=>PXC7H15+CH4                9.0300E-01    3.650   7153.00
NC7H16+CH3<=>SXC7H15+CH4                3.0000E+00    3.460   5480.00
PXC7H15<=>SXC7H15                       3.5600E+10    0.880  39000.00
PXC5H11<=>SXC5H11                       3.5600E+10    0.880  39000.00
PXC7H15<=>S2XC7H15                      3.8000E+10    0.670  37500.00
PXC5H11<=>S2XC5H11                      3.8000E+10    0.670  37500.00
PXC7H15<=>S3XC7H15                      7.8500E+11   -0.120  22200.00
END
