THERMO ALL
  300.000  1000.000  5000.000
H                 L-7-88H   1               G     200.0    3500.0  1000.0      1
   2.50000001E0-2.30842973E-11 1.61561948E-14-4.73515235E-18 4.98197357E-22    2
   2.54736599E4 -4.46682914E-1          2.5E0 7.05332819E-13-1.99591964E-15    3
 2.30081632E-18-9.27732332E-22   2.54736599E4 -4.46682853E-1                   4
O                 L-1-90O   1               G     200.0    3500.0  1000.0      1
   2.56942078E0 -8.59741137E-5  4.19484589E-8-1.00177799E-11 1.22833691E-15    2
   2.92175791E4   4.78433864E0    3.1682671E0 -3.27931884E-3  6.64306396E-6    3
 -6.12806624E-9 2.11265971E-12   2.91222592E4   2.05193346E0                   4
OH                S-9-01H   1O   1          G     200.0    6000.0  1000.0      1
   2.86472886E0  1.05650448E-3 -2.59082758E-7 3.05218674E-11-1.33195876E-15    2
   3.71885774E3   5.70164073E0   4.12530561E0 -3.22544939E-3  6.52764691E-6    3
 -5.79853643E-9 2.06237379E-12   3.38153812E3  -6.9043296E-1                   4
HO2               L-5-89H   1O   2          G     200.0    3500.0  1000.0      1
    4.0172109E0  2.23982013E-3  -6.3365815E-7  1.1424637E-10-1.07908535E-14    2
   1.11856713E2   3.78510215E0   4.30179801E0 -4.74912051E-3  2.11582891E-5    3
 -2.42763894E-8 9.29225124E-12    2.9480804E2   3.71666245E0                   4
H2                TPIS78H   2               G     200.0    3500.0  1000.0      1
    3.3372792E0 -4.94024731E-5  4.99456778E-7-1.79566394E-10 2.00255376E-14    2
  -9.50158922E2  -3.20502331E0   2.34433112E0  7.98052075E-3  -1.9478151E-5    3
  2.01572094E-8-7.37611761E-12  -9.17935173E2  6.83010238E-1                   4
H2O               L-8-89H   2O   1          G     200.0    3500.0  1000.0      1
   3.03399249E0  2.17691804E-3 -1.64072518E-7 -9.7041987E-11 1.68200992E-14    2
  -3.00042971E4    4.9667701E0   4.19864056E0  -2.0364341E-3  6.52040211E-6    3
 -5.48797062E-9 1.77197817E-12  -3.02937267E4 -8.49032208E-1                   4
H2O2              L-7-88H   2O   2          G     200.0    3500.0  1000.0      1
   4.16500285E0  4.90831694E-3 -1.90139225E-6 3.71185986E-10-2.87908305E-14    2
  -1.78617877E4   2.91615662E0   4.27611269E0 -5.42822417E-4  1.67335701E-5    3
 -2.15770813E-8 8.62454363E-12  -1.77025821E4   3.43505074E0                   4
O2                TPIS89O   2               G     200.0    3500.0  1000.0      1
   3.28253784E0  1.48308754E-3 -7.57966669E-7 2.09470555E-10-2.16717794E-14    2
  -1.08845772E3   5.45323129E0   3.78245636E0 -2.99673416E-3  9.84730201E-6    3
 -9.68129509E-9 3.24372837E-12  -1.06394356E3   3.65767573E0                   4
CH                TPIS79H   1C   1          G     200.0    3500.0  1000.0      1
   2.87846473E0  9.70913681E-4  1.44445655E-7-1.30687849E-10 1.76079383E-14    2
   7.10124364E4   5.48497999E0   3.48981665E0  3.23835541E-4 -1.68899065E-6    3
  3.16217327E-9-1.40609067E-12   7.07972934E4   2.08401108E0                   4
CH2               L-S-93H   2C   1          G     200.0    3500.0  1000.0      1
   2.87410113E0  3.65639292E-3 -1.40894597E-6 2.60179549E-10-1.87727567E-14    2
    4.6263604E4   6.17119324E0   3.76267867E0  9.68872143E-4  2.79489841E-6    3
 -3.85091153E-9 1.68741719E-12   4.60040401E4   1.56253185E0                   4
CH2*              L-S-93H   2C   1          G     200.0    3500.0  1000.0      1
   2.29203842E0  4.65588637E-3 -2.01191947E-6    4.17906E-10-3.39716365E-14    2
   5.09259997E4   8.62650169E0   4.19860411E0 -2.36661419E-3   8.2329622E-6    3
 -6.68815981E-9 1.94314737E-12   5.04968163E4 -7.69118967E-1                   4
CH3               L11-89H   3C   1          G     200.0    3500.0  1000.0      1
   2.28571772E0  7.23990037E-3 -2.98714348E-6 5.95684644E-10-4.67154394E-14    2
   1.67755843E4   8.48007179E0    3.6735904E0  2.01095175E-3  5.73021856E-6    3
 -6.87117425E-9 2.54385734E-12   1.64449988E4   1.60456433E0                   4
CH4               L-8-88H   4C   1          G     200.0    3500.0  1000.0      1
   7.4851495E-2  1.33909467E-2 -5.73285809E-6  1.22292535E-9 -1.0181523E-13    2
  -9.46834459E3    1.8437318E1   5.14987613E0 -1.36709788E-2  4.91800599E-5    3
 -4.84743026E-8 1.66693956E-11  -1.02466476E4  -4.64130376E0                   4
HCO               L12-89H   1O   1C   1     G     200.0    3500.0  1000.0      1
   2.77217438E0  4.95695526E-3 -2.48445613E-6 5.89161778E-10-5.33508711E-14    2
   4.01191815E3   9.79834492E0   4.22118584E0 -3.24392532E-3  1.37799446E-5    3
 -1.33144093E-8 4.33768865E-12   3.83956496E3   3.39437243E0                   4
CH2O              L-8-88H   2O   1C   1     G     200.0    3500.0  1000.0      1
   1.76069008E0  9.20000082E-3 -4.42258813E-6  1.00641212E-9 -8.8385564E-14    2
  -1.39958323E4    1.3656323E1   4.79372315E0 -9.90833369E-3  3.73220008E-5    3
 -3.79285261E-8 1.31772652E-11  -1.43089567E4    6.028129E-1                   4
CH3O              IU1-03H   3O   1C   1     G     200.0    6000.0  1000.0      1
   4.75779238E0  7.44142474E-3 -2.69705176E-6 4.38090504E-10-2.63537098E-14    2
    3.7811194E2  -1.96680028E0   3.71180502E0 -2.80463306E-3  3.76550971E-5    3
 -4.73072089E-8  1.8658842E-11    1.2956976E3   6.57240864E0                   4
CH2OH             IU2-03H   3O   1C   1     G     200.0    6000.0  1000.0      1
    5.0931437E0   5.9476126E-3  -2.0649746E-6 3.23008173E-10-1.88125902E-14    2
   -4.0340964E3  -1.84691493E0   4.47834367E0  -1.3507031E-3   2.7848498E-5    3
  -3.6486906E-8  1.4790745E-11   -3.5007289E3     3.309135E0                   4
CH3OH             L-8-88H   4O   1C   1     G     200.0    3500.0  1000.0      1
   1.78970791E0  1.40938292E-2 -6.36500835E-6  1.38171085E-9 -1.1706022E-13    2
  -2.53748747E4   1.45023623E1   5.71539582E0 -1.52309129E-2  6.52441155E-5    3
 -7.10806889E-8 2.61352698E-11  -2.56427656E4  -1.50409823E0                   4
CO                TPIS79O   1C   1          G     200.0    3500.0  1000.0      1
   2.71518561E0  2.06252743E-3 -9.98825771E-7 2.30053008E-10-2.03647716E-14    2
  -1.41518724E4   7.81868772E0   3.57953347E0  -6.1035368E-4  1.01681433E-6    3
 9.07005884E-10-9.04424499E-13   -1.4344086E4   3.50840928E0                   4
CO2               L-7-88O   2C   1          G     200.0    3500.0  1000.0      1
   3.85746029E0  4.41437026E-3 -2.21481404E-6 5.23490188E-10-4.72084164E-14    2
   -4.8759166E4   2.27163806E0   2.35677352E0  8.98459677E-3 -7.12356269E-6    3
  2.45919022E-9-1.43699548E-13  -4.83719697E4   9.90105222E0                   4
C2H               L-1-91H   1C   2          G     200.0    3500.0  1000.0      1
   3.16780652E0  4.75221902E-3 -1.83787077E-6 3.04190252E-10 -1.7723277E-14    2
    6.7121065E4   6.63589475E0   2.88965733E0  1.34099611E-2 -2.84769501E-5    3
  2.94791045E-8-1.09331511E-11   6.68393932E4   6.22296438E0                   4
C2H2              L-1-91H   2C   2          G     200.0    3500.0  1000.0      1
   4.14756964E0  5.96166664E-3 -2.37294852E-6 4.67412171E-10-3.61235213E-14    2
   2.59359992E4  -1.23028121E0  8.08681094E-1  2.33615629E-2 -3.55171815E-5    3
  2.80152437E-8-8.50072974E-12   2.64289807E4   1.39397051E1                   4
C2H3              L-2-92H   3C   2          G     200.0    3500.0  1000.0      1
     3.016724E0  1.03302292E-2 -4.68082349E-6  1.01763288E-9-8.62607041E-14    2
   3.46128739E4   7.78732378E0   3.21246645E0  1.51479162E-3  2.59209412E-5    3
 -3.57657847E-8 1.47150873E-11   3.48598468E4   8.51054025E0                   4
C2H4              L-1-91H   4C   2          G     200.0    3500.0  1000.0      1
   2.03611116E0  1.46454151E-2 -6.71077915E-6  1.47222923E-9-1.25706061E-13    2
   4.93988614E3   1.03053693E1   3.95920148E0 -7.57052247E-3  5.70990292E-5    3
 -6.91588753E-8 2.69884373E-11   5.08977593E3   4.09733096E0                   4
C2H5              L12-92H   5C   2          G     200.0    3500.0  1000.0      1
   1.95465642E0  1.73972722E-2 -7.98206668E-6  1.75217689E-9-1.49641576E-13    2
     1.285752E4   1.34624343E1   4.30646568E0 -4.18658892E-3  4.97142807E-5    3
 -5.99126606E-8 2.30509004E-11   1.28416265E4   4.70720924E0                   4
C2H6              L-8-88H   6C   2          G     200.0    3500.0  1000.0      1
    1.0718815E0  2.16852677E-2 -1.00256067E-5  2.21412001E-9 -1.9000289E-13    2
  -1.14263932E4   1.51156107E1   4.29142492E0  -5.5015427E-3  5.99438288E-5    3
 -7.08466285E-8 2.68685771E-11  -1.15222055E4   2.66682316E0                   4
HCCO              SRIC91H   1O   1C   2     G     300.0    4000.0  1000.0      1
    5.6282058E0   4.0853401E-3  -1.5934547E-6  2.8626052E-10 -1.9407832E-14    2
    1.9327215E4   -3.9302595E0    2.2517214E0   1.7655021E-2  -2.3729101E-5    3
   1.7275759E-8 -5.0664811E-12    2.0059449E4    1.2490417E1                   4
CH2CO             D05-90H   2O   1C   2     G     200.0    3500.0  1000.0      1
   4.51129732E0  9.00359745E-3 -4.16939635E-6 9.23345882E-10-7.94838201E-14    2
      -7.7785E3  6.32247205E-1    2.1358363E0  1.81188721E-2 -1.73947474E-5    3
  9.34397568E-9-2.01457615E-12        -7.27E3    1.2215648E1                   4
CH3CO             T-9-92H   3O   1C   2     G     200.0    6000.0  1000.0      1
    5.9447731E0   7.8667205E-3  -2.8865882E-6  4.7270875E-10 -2.8599861E-14    2
   -3.7873075E3   -5.0136751E0    4.1634257E0   -2.326161E-4    3.426782E-5    3
  -4.4105227E-8  1.7275612E-11   -2.6574529E3     7.346828E0                   4
CH2CHO            D05-83H   3O   1C   2     G     300.0    5000.0  1000.0      1
    5.9756699E0   8.1305914E-3  -2.7436245E-6  4.0703041E-10 -2.1760171E-14    2
       -9.695E2   -5.0320879E0    3.4090624E0   1.0738574E-2   1.8914925E-6    3
  -7.1585831E-9  2.8673851E-12          6.2E1    9.5714535E0                   4
CH3CHO            L-8-88H   4O   1C   2     G     200.0    6000.0  1000.0      1
    5.4041108E0   1.1723059E-2  -4.2263137E-6  6.8372451E-10 -4.0984863E-14    2
   -2.2593122E4   -3.4807917E0    4.7294595E0  -3.1932858E-3   4.7534921E-5    3
  -5.7458611E-8  2.1931112E-11   -2.1572878E4    4.1030159E0                   4
C3H3              T-5-97H   3C   3          G     200.0    6000.0  1000.0      1
    7.1422188E0  7.61902005E-3  -2.6745995E-6 4.24914801E-10-2.51475415E-14    2
   3.89087427E4  -1.25848436E1   1.35110927E0  3.27411223E-2 -4.73827135E-5    3
  3.76309808E-8-1.18540923E-11   4.01057783E4   1.52058924E1                   4
pC3H4             T-2-90H   4C   3          G     200.0    6000.0  1000.0      1
      6.02524E0   1.1336542E-2  -4.0223391E-6  6.4376063E-10 -3.8299635E-14    2
    1.9620942E4   -8.6043785E0    2.6803869E0   1.5799651E-2   2.5070596E-6    3
  -1.3657623E-8  6.6154285E-12    2.0802374E4    9.8769351E0                   4
aC3H4             L-8-89H   4C   3          G     200.0    6000.0  1000.0      1
    6.3168722E0   1.1133728E-2  -3.9629378E-6  6.3564238E-10  -3.787554E-14    2
    2.0117495E4   -1.0995766E1    2.6130445E0   1.2122575E-2    1.853988E-5    3
  -3.4525149E-8  1.5335079E-11    2.1541567E4    1.0226139E1                   4
aC3H5             PD5-98H   5C   3          G     300.0    3000.0  1000.0      1
    6.5007877E0   1.4324731E-2  -5.6781632E-6   1.1080801E-9 -9.0363887E-14    2
    1.7482449E4    -1.124305E1    1.3631835E0   1.9813821E-2    1.249706E-5    3
  -3.3355555E-8  1.5846571E-11    1.9245629E4    1.7173214E1                   4
CH3CCH2           PD5-98H   5C   3          G     300.0    3000.0  1000.0      1
    5.4255528E0   1.5511072E-2   -5.667835E-6  7.9224388E-10 -1.6878034E-14    2
    2.7843027E4   -3.3527184E0    1.7329209E0    2.239462E-2  -5.1490611E-6    3
  -6.7596466E-9  3.8253211E-12    2.9040498E4    1.6568878E1                   4
C3H6              120186H   6C   3          G     300.0    5000.0  1000.0      1
     6.732257E0    1.490834E-2   -4.949899E-6   7.212022E-10  -3.766204E-14    2
    -9.235703E2    -1.331335E1     1.493307E0    2.092518E-2    4.486794E-6    3
   -1.668912E-8   7.158146E-12     1.074826E3     1.614534E1                   4
nC3H7             P11-94H   7C   3          G     300.0    3000.0  1000.0      1
    7.7097479E0   1.6031485E-2  -5.2720238E-6  7.5888352E-10 -3.8862719E-14    2
    7.9762236E3   -1.5515297E1    1.0491173E0   2.6008973E-2   2.3542516E-6    3
  -1.9595132E-8  9.3720207E-12    1.0312346E4    2.1136034E1                   4
iC3H7             P11-94H   7C   3          G     300.0    3000.0  1000.0      1
    6.5192741E0   1.7220104E-2  -5.7364217E-6  8.4130732E-10 -4.4565913E-14    2
    7.3227193E3   -9.0830215E0    1.4449199E0   2.0999112E-2   7.7036222E-6    3
  -1.8476253E-8  7.1282962E-12    9.4223724E3    2.0116317E1                   4
C2H3CHO           USC-07H   4O   1C   3     G     300.0    5000.0  1000.0      1
    5.8111868E0   1.7114256E-2  -7.4834161E-6   1.4252249E-9 -9.1746841E-14    2
   -1.0784054E4   -4.8588004E0    1.2713498E0   2.6231054E-2  -9.2912305E-6    3
  -4.7837272E-9  3.3480543E-12   -9.3357344E3    1.9498077E1                   4
C4H2              D11-99H   2C   4          G     300.0    3000.0  1000.0      1
    9.1576328E0   5.5430518E-3  -1.3591604E-6  1.8780075E-11  2.3189536E-14    2
    5.2588039E4    -2.371146E1    1.0543978E0    4.162696E-2  -6.5871784E-5    3
   5.3257075E-8 -1.6683162E-11    5.4185211E4    1.4866591E1                   4
iC4H3             USC-07H   3C   4          G     300.0    5000.0  1000.0      1
    7.6538548E0   1.1204055E-2  -4.6401342E-6  8.6786639E-10 -5.7430562E-14    2
    5.7954363E4   -1.1756476E1    3.7221482E0   2.5957543E-2  -2.6356343E-5    3
    1.550892E-8 -3.8040565E-12    5.8837121E4    7.5637245E0                   4
C4H4              USC-07H   4C   4          G     300.0    5000.0  1000.0      1
    7.2539601E0   1.3914094E-2  -5.2932214E-6   8.348045E-10 -3.5197882E-14    2
    3.1766016E4   -1.2629521E1   5.8857048E-1   3.6546685E-2  -3.4106968E-5    3
   1.6652619E-8 -3.0064623E-12    3.3359492E4    2.0657881E1                   4
iC4H5             USC-07H   5C   4          G     300.0    5000.0  1000.0      1
    6.9646029E0   1.8274333E-2  -7.8133735E-6   1.5292154E-9 -1.0920493E-13    2
    3.4725098E4   -1.0649321E1   1.1308105E-1   4.0950615E-2  -3.5413581E-5    3
   1.5530969E-8 -2.3355122E-12    3.6383371E4    2.3692457E1                   4
C4H5-2            H6W-94H   5C   4          G     300.0    3000.0  1000.0      1
    1.4538171E1  -8.5677056E-3   2.3559524E-5  -1.3676379E-8  2.4436927E-12    2
    3.3259095E4   -4.5369497E1     2.969628E0   2.4442245E-2  -9.1251424E-6    3
 -4.2466871E-18  1.6304728E-21    3.5503316E4    1.2036051E1                   4
C4H6              H6W-94H   6C   4          G     300.0    3000.0  1000.0      1
    8.8673134E0    1.491867E-2  -3.1548716E-6  -4.184133E-10  1.5761258E-13    2
    9.1338516E3   -2.3328171E1   1.1284465E-1   3.4369022E-2  -1.1107392E-5    3
   -9.210666E-9  6.2065179E-12     1.180227E4    2.3089996E1                   4
C4H612            A-8-83H   6C   4          G     300.0    3000.0  1000.0      1
     1.781557E1   -4.257502E-3    1.051185E-5   -4.473844E-9   5.848138E-13    2
     1.267342E4    -6.982662E1     1.023467E0    3.495919E-2   -2.200905E-5    3
    6.942272E-9  -7.879187E-13     1.811799E4     1.975066E1                   4
C4H6-2            A-8-83H   6C   4          G     300.0    3000.0  1000.0      1
    9.0338133E0    8.212451E-3   7.1753952E-6  -5.8834334E-9  1.0343915E-12    2
    1.4335068E4   -2.0985762E1    2.1373338E0   2.6486229E-2  -9.0568711E-6    3
 -5.5386397E-19  2.1281884E-22    1.5710902E4    1.3529426E1                   4
C4H7              USC-07H   7C   4          G     300.0    5000.0  1000.0      1
    7.0134835E0   2.2634558E-2   -9.254547E-6   1.6807927E-9 -1.0408617E-13    2
    2.0955008E4    -8.889308E0   7.4449432E-1   3.9678857E-2  -2.2898086E-5    3
   2.1352973E-9  2.3096375E-12    2.2653328E4    2.3437878E1                   4
C4H81             T-6-83H   8C   4          G     300.0    5000.0  1000.0      1
    2.0535841E0   3.4350507E-2  -1.5883197E-5   3.3089662E-9 -2.5361045E-13    2
   -2.1397231E3    1.5543201E1     1.181138E0    3.085338E-2   5.0865247E-6    3
  -2.4654888E-8  1.1110193E-11   -1.7904004E3    2.1062469E1                   4
pC4H9             USC-07H   9C   4          G     300.0    5000.0  1000.0      1
    8.6822395E0   2.3691071E-2  -7.5948865E-6  6.6427136E-10  5.4845136E-14    2
    4.9644058E3   -1.7891747E1    1.2087042E0   3.8297497E-2  -7.2660509E-6    3
  -1.5428547E-8  8.6859435E-12     7.322104E3    2.2169268E1                   4
NC7H16            -THERMH  16C   7          G     300.0    5000.0  1391.0      1
   2.22148969E1   3.4767575E-2 -1.18407129E-5  1.83298478E-9-1.06130266E-13    2
  -3.42760081E4  -9.23040196E1  -1.26836187E0   8.5435582E-2 -5.25346786E-5    3
  1.62945721E-8-2.02394925E-12  -2.56586565E4   3.53732912E1                   4
PXC7H15           -THERMH  15C   7          G     300.0    5000.0  1390.0      1
   2.17940709E1  3.26280243E-2 -1.11138244E-5  1.72067148E-9-9.96366999E-14    2
  -9.20938221E3  -8.64954311E1 -4.99570406E-1  8.08826467E-2 -5.00532754E-5    3
  1.56549308E-8-1.96616227E-12  -1.04590223E3   3.46564011E1                   4
SXC7H15           -THERMH  15C   7          G     300.0    5000.0  1382.0      1
   2.16368842E1  3.23324804E-2 -1.09273807E-5   1.6835706E-9-9.71774091E-14    2
  -1.05873616E4  -8.52209653E1 -3.79155767E-2   7.5672657E-2 -4.07473634E-5    3
  9.32678943E-9-4.92360745E-13  -2.35605303E3   3.37321506E1                   4
C7H14             -THERMH  14C   7          G     300.0    5000.0  1392.0      1
   2.10898039E1  3.10607878E-2 -1.05644793E-5   1.6340578E-9-9.45598219E-14    2
  -1.83260065E4  -8.44391108E1  -1.67720549E0  8.24611601E-2 -5.46504108E-5    3
  1.87862303E-8-2.65737983E-12  -1.02168601E4   3.85068032E1                   4
C7H13             -THERMH  13C   7          G     300.0    5000.0  1389.0      1
   2.09278134E1  2.92841022E-2  -1.0089964E-5  1.57425554E-9-9.16505991E-14    2
  -1.41296217E3  -8.50447021E1  -1.66945935E0  7.93202117E-2 -5.20231516E-5    3
  1.74804211E-8-2.40912996E-12   6.75927466E3   3.73759517E1                   4
PXC6H13           -THERMH  13C   6          G     300.0    5000.0  1390.0      1
    1.8538547E1  2.83107962E-2 -9.65307246E-6  1.49547585E-9-8.66336064E-14    2
  -5.09299041E3  -7.04490943E1 -2.04871465E-1  6.83801272E-2 -4.14447912E-5    3
  1.26155802E-8-1.53120058E-12   1.83280393E3   3.16075093E1                   4
PXC5H11           -THERMH  11C   5          G     300.0    5000.0  1390.0      1
   1.52977446E1   2.3973531E-2 -8.18392948E-6  1.26883076E-9-7.35409055E-14    2
  -9.80712307E2  -5.44829293E1  5.24384081E-2  5.60796958E-2 -3.31545803E-5    3
  9.77533781E-9 -1.1400966E-12    4.7161146E3   2.87238666E1                   4
SXC5H11           -THERMH  11C   5          G     300.0    5000.0  1377.0      1
   1.50998007E1  2.37225333E-2   -8.013889E-6  1.23431039E-9-7.12300125E-14    2
  -2.33420039E3  -5.29613979E1  4.98943592E-1  5.09850184E-2 -2.40687488E-5    3
  3.59465211E-9 3.01383099E-13   3.40702366E3   2.78600953E1                   4
C5H10             -THERMH  10C   5          G     300.0    5000.0  1392.0      1
   1.45851539E1  2.24072471E-2 -7.63348025E-6  1.18188966E-9-6.84385139E-14    2
  -1.00898205E4  -5.23683936E1  -1.06223481E0  5.74218294E-2  -3.7448689E-5    3
  1.27364989E-8-1.79609789E-12  -4.46546666E3    3.2273979E1                   4
C5H9              -THERMH   9C   5          G     300.0    5000.0  1386.0      1
   1.45546753E1  2.04331611E-2 -7.07391431E-6  1.10720105E-9-6.46021493E-14    2
   6.76813422E3   -5.3724374E1  -1.22720644E0  5.49419289E-2  -3.5628402E-5    3
  1.18245127E-8-1.61716004E-12   1.25391664E4   3.19626373E1                   4
S2XC7H15          -THERMH  15C   7          G     300.0    5000.0  1382.0      1
   2.16368842E1  3.23324804E-2 -1.09273807E-5   1.6835706E-9-9.71774091E-14    2
  -1.05873616E4  -8.52209653E1 -3.79155767E-2   7.5672657E-2 -4.07473634E-5    3
  9.32678943E-9-4.92360745E-13  -2.35605303E3   3.37321506E1                   4
S3XC7H15          -THERMH  15C   7          G     300.0    5000.0  1382.0      1
   2.16368842E1  3.23324804E-2 -1.09273807E-5   1.6835706E-9-9.71774091E-14    2
  -1.05873616E4  -8.52209653E1 -3.79155767E-2   7.5672657E-2 -4.07473634E-5    3
  9.32678943E-9-4.92360745E-13  -2.35605303E3   3.37321506E1                   4
S2XC5H11          -THERMH  11C   5          G     300.0    5000.0  1377.0      1
   1.50998007E1  2.37225333E-2   -8.013889E-6  1.23431039E-9-7.12300125E-14    2
  -2.33420039E3  -5.29613979E1  4.98943592E-1  5.09850184E-2 -2.40687488E-5    3
  3.59465211E-9 3.01383099E-13   3.40702366E3   2.78600953E1                   4
N2                121286N   2               G     300.0    5000.0  1000.0      1
      2.92664E0   1.4879768E-3    -5.68476E-7  1.0097038E-10  -6.753351E-15    2
    -9.227977E2     5.980528E0     3.298677E0   1.4082404E-3   -3.963222E-6    3
    5.641515E-9  -2.444854E-12   -1.0208999E3     3.950372E0                   4
C                 L11-88C   1               G     200.0    3500.0  1000.0      1
   2.49266888E0  4.79889284E-5  -7.2433502E-8 3.74291029E-11-4.87277893E-15    2
   8.54512953E4   4.80150373E0   2.55423955E0 -3.21537724E-4  7.33792245E-7    3
-7.32234889E-10 2.66521446E-13   8.54438832E4   4.53130848E0                   4
CH2(S)            L-S-93H   2C   1          G     200.0    3500.0  1000.0      1
   2.29203842E0  4.65588637E-3 -2.01191947E-6    4.17906E-10-3.39716365E-14    2
   5.09259997E4   8.62650169E0   4.19860411E0 -2.36661419E-3   8.2329622E-6    3
 -6.68815981E-9 1.94314737E-12   5.04968163E4 -7.69118967E-1                   4
HCCOH             -SRI91H   2O   1C   2     G     300.0    5000.0  1000.0      1
    5.9238291E0     6.79236E-3  -2.5658564E-6  4.4987841E-10 -2.9940101E-14    2
     7.264626E3   -7.6017742E0    1.2423733E0   3.1072201E-2  -5.0866864E-5    3
   4.3137131E-8 -1.4014594E-11    8.0316143E3    1.3874319E1                   4
N                 L-6-88N   1               G     200.0    6000.0  1000.0      1
    2.4159429E0   1.7489065E-4  -1.1902369E-7  3.0226245E-11 -2.0360982E-15    2
    5.6133773E4    4.6496096E0          2.5E0          0.0E0          0.0E0    3
          0.0E0          0.0E0    5.6104637E4    4.1939087E0                   4
NH                 And94H   1N   1          G     200.0    6000.0  1000.0      1
    2.7836928E0    1.329843E-3  -4.2478047E-7  7.8348501E-11  -5.504447E-15    2
    4.2120848E4    5.7407799E0    3.4929085E0   3.1179198E-4  -1.4890484E-6    3
   2.4816442E-9 -1.0356967E-12    4.1880629E4    1.8483278E0                   4
NH2                And89H   2N   1          G     200.0    6000.0  1000.0      1
    2.8347421E0   3.2073082E-3  -9.3390804E-7  1.3702953E-10 -7.9206144E-15    2
    2.2171957E4    6.5204163E0    4.2040029E0  -2.1061385E-3   7.1068348E-6    3
  -5.6115197E-9  1.6440717E-12     2.188591E4  -1.4184248E-1                   4
NH3               J-6-77H   3N   1          G     200.0    6000.0  1000.0      1
    2.6344521E0    5.666256E-3  -1.7278676E-6  2.3867161E-10 -1.2578786E-14    2
   -6.5446958E3    6.5662928E0    4.2860274E0   -4.660523E-3   2.1718513E-5    3
  -2.2808887E-8  8.2638046E-12   -6.7417285E3  -6.2537277E-1                   4
NNH               T07-93H   1N   2          G     200.0    6000.0  1000.0      1
    3.7667544E0   2.8915082E-3   -1.041662E-6  1.6842594E-10 -1.0091896E-14    2
    2.8650697E4    4.4705067E0    4.3446927E0  -4.8497072E-3   2.0059459E-5    3
  -2.1726464E-8  7.9469539E-12    2.8791973E4     2.977941E0                   4
NO                RUS-78O   1N   1          G     200.0    6000.0  1000.0      1
    3.2606056E0   1.1911043E-3  -4.2917048E-7  6.9457669E-11 -4.0336099E-15    2
    9.9209746E3    6.3693027E0    4.2184763E0   -4.638976E-3   1.1041022E-5    3
  -9.3361354E-9   2.803577E-12     9.844623E3    2.2808464E0                   4
NO2               L-7-88O   2N   1          G     200.0    6000.0  1000.0      1
    4.8847542E0   2.1723956E-3  -8.2806906E-7   1.574751E-10 -1.0510895E-14    2
    2.3164983E3  -1.1741695E-1    3.9440312E0   -1.585429E-3   1.6657812E-5    3
  -2.0475426E-8  7.8350564E-12    2.8966179E3    6.3119917E0                   4
N2O               L-7-88O   1N   2          G     200.0    6000.0  1000.0      1
    4.8230729E0   2.6270251E-3  -9.5850874E-7  1.6000712E-10 -9.7752303E-15    2
    8.0734048E3   -2.2017207E0    2.2571502E0   1.1304728E-2  -1.3671319E-5    3
   9.6819806E-9 -2.9307182E-12    8.7417744E3    1.0757992E1                   4
HNO                And93H   1O   1N   1     G     200.0    6000.0  1000.0      1
    2.9792509E0   3.4944059E-3  -7.8549778E-7  5.7479594E-11 -1.9335916E-16    2
    1.1750582E4    8.6063728E0    4.5334916E0  -5.6696171E-3   1.8473207E-5    3
  -1.7137094E-8  5.5454573E-12    1.1548297E4    1.7498417E0                   4
CN                 HBH92C   1N   1          G     200.0    6000.0  1000.0      1
    3.7459805E0   4.3450775E-5   2.9705984E-7 -6.8651806E-11  4.4134173E-15    2
    5.1536188E4    2.7867601E0    3.6129351E0  -9.5551327E-4   2.1442977E-6    3
 -3.1516323E-10 -4.6430356E-13     5.170834E4    3.9804995E0                   4
HCN               GRI-98H   1C   1N   1     G     200.0    6000.0  1000.0      1
    3.8022392E0   3.1464228E-3  -1.0632185E-6  1.6619757E-10  -9.799757E-15    2
    1.4407292E4    1.5754601E0    2.2589886E0    1.005117E-2  -1.3351763E-5    3
   1.0092349E-8 -3.0089028E-12    1.4712633E4    8.9164419E0                   4
H2CN              -41687H   2C   1N   1     G     300.0    4000.0  1000.0      1
     5.209703E0   2.9692911E-3  -2.8555891E-7   -1.63555E-10  3.0432589E-14    2
    2.7677109E4    -4.444478E0     2.851661E0   5.6952331E-3     1.07114E-6    3
   -1.622612E-9 -2.3511081E-13     2.863782E4    8.9927511E0                   4
HCNN              SRI-94H   1C   1N   2     G     300.0    5000.0  1000.0      1
    5.8946362E0   3.9895959E-3   -1.598238E-6  2.9249395E-10 -2.0094686E-14    2
    5.3452941E4   -5.1030502E0    2.5243194E0   1.5960619E-2  -1.8816354E-5    3
    1.212554E-8 -3.2357378E-12    5.4261984E4     1.167587E1                   4
HCNO              BDEA94H   1O   1C   1N   1G     300.0    5000.0  1382.0      1
   6.59860456E0  3.02778626E-3 -1.07704346E-6 1.71666528E-10-1.01439391E-14    2
   1.79661339E4  -1.03306599E1   2.64727989E0  1.27505342E-2 -1.04794236E-5    3
  4.41432836E-9-7.57521466E-13   1.92990252E4   1.07332972E1                   4
HOCN              BDEA94H   1O   1C   1N   1G     300.0    5000.0  1368.0      1
   5.89784885E0  3.16789393E-3 -1.11801064E-6 1.77243144E-10-1.04339177E-14    2
  -3.70653331E3  -6.18167825E0   3.78604952E0  6.88667922E-3 -3.21487864E-6    3
 5.17195767E-10 1.19360788E-14    -2.826984E3   5.63292162E0                   4
HNCO              BDEA94H   1O   1C   1N   1G     300.0    5000.0  1478.0      1
   6.22395134E0  3.17864004E-3 -1.09378755E-6 1.70735163E-10-9.95021955E-15    2
  -1.66599344E4  -8.38224741E0   3.63096317E0  7.30282357E-3 -2.28050003E-6    3
-6.61271298E-10 3.62235752E-13  -1.55873636E4   6.19457727E0                   4
NCO                EA-93O   1C   1N   1     G     200.0    6000.0  1000.0      1
    5.1521845E0   2.3051761E-3  -8.8033153E-7  1.4789098E-10 -9.0977996E-15    2
    1.4004123E4    -2.544266E0    2.8269308E0   8.8051688E-3  -8.3866134E-6    3
   4.8016964E-9 -1.3313595E-12    1.4682477E4    9.5504646E0                   4
AR                120186AR  1               G     300.0    5000.0  1000.0      1
          2.5E0          0.0E0          0.0E0          0.0E0          0.0E0    2
     -7.45375E2        4.366E0          2.5E0          0.0E0          0.0E0    3
          0.0E0          0.0E0     -7.45375E2        4.366E0                   4
C3H7              L-9-84H   7C   3          G     300.0    5000.0  1000.0      1
    7.7026987E0   1.6044203E-2   -5.283322E-6   7.629859E-10 -3.9392284E-14    2
    8.2984336E3    -1.548018E1    1.0515518E0    2.599198E-2    2.380054E-6    3
  -1.9609569E-8   9.373247E-12    1.0631863E4    2.1122559E1                   4
C3H8              L-4-85H   8C   3          G     300.0    5000.0  1000.0      1
    7.5341368E0   1.8872239E-2  -6.2718491E-6  9.1475649E-10 -4.7838069E-14    2
   -1.6467516E4   -1.7892349E1   9.3355381E-1   2.6424579E-2   6.1059727E-6    3
  -2.1977499E-8  9.5149253E-12    -1.395852E4    1.9201691E1                   4
END
